*SPEF "IEEE 1481-1998"
*DESIGN "BitAND_16b_flopped"
*DATE "Mon Apr 21 03:50:24 pm 2025"
*VENDOR "Cadence Design Systems"
*PROGRAM "Genus(TM) Synthesis Solution"
*VERSION "18.14-s037_1"
*DESIGN_FLOW "PIN_CAP NONE" "NAME_SCOPE LOCAL"
*DIVIDER /
*DELIMITER :
*BUS_DELIMITER []
*T_UNIT 1 NS
*C_UNIT 1 PF
*R_UNIT 1 OHM
*L_UNIT 1 HENRY
// Interconnect mode: global

*NAME_MAP

*1 a[15]
*2 a[14]
*3 a[13]
*4 a[12]
*5 a[11]
*6 a[10]
*7 a[9]
*8 a[8]
*9 a[7]
*10 a[6]
*11 a[5]
*12 a[4]
*13 a[3]
*14 a[2]
*15 a[1]
*16 a[0]
*17 b[15]
*18 b[14]
*19 b[13]
*20 b[12]
*21 b[11]
*22 b[10]
*23 b[9]
*24 b[8]
*25 b[7]
*26 b[6]
*27 b[5]
*28 b[4]
*29 b[3]
*30 b[2]
*31 b[1]
*32 b[0]
*33 clk
*34 result[15]
*35 result[14]
*36 result[13]
*37 result[12]
*38 result[11]
*39 result[10]
*40 result[9]
*41 result[8]
*42 result[7]
*43 result[6]
*44 result[5]
*45 result[4]
*46 result[3]
*47 result[2]
*48 result[1]
*49 result[0]
*50 a[0]
*51 a[1]
*52 a[2]
*53 a[3]
*54 a[4]
*55 a[5]
*56 a[6]
*57 a[7]
*58 a[8]
*59 a[9]
*60 a[10]
*61 a[11]
*62 a[12]
*63 a[13]
*64 a[14]
*65 a[15]
*66 a_flopped_0_0
*67 a_flopped_0_1
*68 a_flopped_0_2
*69 a_flopped_0_3
*70 a_flopped_0_4
*71 a_flopped_0_5
*72 a_flopped_0_6
*73 a_flopped_0_7
*74 a_flopped_0_8
*75 a_flopped_0_9
*76 a_flopped_0_10
*77 a_flopped_0_11
*78 a_flopped_0_12
*79 a_flopped_0_13
*80 a_flopped_0_14
*81 a_flopped_0_15
*82 b[0]
*83 b[1]
*84 b[2]
*85 b[3]
*86 b[4]
*87 b[5]
*88 b[6]
*89 b[7]
*90 b[8]
*91 b[9]
*92 b[10]
*93 b[11]
*94 b[12]
*95 b[13]
*96 b[14]
*97 b[15]
*98 b_flopped_0_0
*99 b_flopped_0_1
*100 b_flopped_0_2
*101 b_flopped_0_3
*102 b_flopped_0_4
*103 b_flopped_0_5
*104 b_flopped_0_6
*105 b_flopped_0_7
*106 b_flopped_0_8
*107 b_flopped_0_9
*108 b_flopped_0_10
*109 b_flopped_0_11
*110 b_flopped_0_12
*111 b_flopped_0_13
*112 b_flopped_0_14
*113 b_flopped_0_15
*114 multiplied_result_a_2
*115 multiplied_result_a_3
*116 multiplied_result_a_4
*117 multiplied_result_a_5
*118 multiplied_result_a_6
*119 multiplied_result_a_7
*120 multiplied_result_a_8
*121 multiplied_result_a_9
*122 multiplied_result_a_10
*123 multiplied_result_a_11
*124 multiplied_result_a_12
*125 multiplied_result_a_13
*126 multiplied_result_a_14
*127 multiplied_result_a_15
*128 multiplied_result_a_16
*129 multiplied_result_a_17
*130 multiplied_result_a_18
*131 multiplied_result_a_19
*132 multiplied_result_a_20
*133 multiplied_result_a_21
*134 multiplied_result_a_22
*135 multiplied_result_a_23
*136 multiplied_result_a_24
*137 multiplied_result_a_25
*138 multiplied_result_a_26
*139 multiplied_result_a_27
*140 multiplied_result_a_28
*141 multiplied_result_a_29
*142 multiplied_result_a_30
*143 multiplied_result_a_31
*144 multiplied_result_b_2
*145 multiplied_result_b_3
*146 multiplied_result_b_4
*147 multiplied_result_b_5
*148 multiplied_result_b_6
*149 multiplied_result_b_7
*150 multiplied_result_b_8
*151 multiplied_result_b_9
*152 multiplied_result_b_10
*153 multiplied_result_b_11
*154 multiplied_result_b_12
*155 multiplied_result_b_13
*156 multiplied_result_b_14
*157 multiplied_result_b_15
*158 multiplied_result_b_16
*159 multiplied_result_b_17
*160 multiplied_result_b_18
*161 multiplied_result_b_19
*162 multiplied_result_b_20
*163 multiplied_result_b_21
*164 multiplied_result_b_22
*165 multiplied_result_b_23
*166 multiplied_result_b_24
*167 multiplied_result_b_25
*168 multiplied_result_b_26
*169 multiplied_result_b_27
*170 multiplied_result_b_28
*171 multiplied_result_b_29
*172 multiplied_result_b_30
*173 multiplied_result_b_31
*174 multiplied_xor_result_flopped_a_0
*175 multiplied_xor_result_flopped_a_1
*176 multiplied_xor_result_flopped_a_2
*177 multiplied_xor_result_flopped_a_3
*178 multiplied_xor_result_flopped_a_4
*179 multiplied_xor_result_flopped_a_5
*180 multiplied_xor_result_flopped_a_6
*181 multiplied_xor_result_flopped_a_7
*182 multiplied_xor_result_flopped_a_8
*183 multiplied_xor_result_flopped_a_9
*184 multiplied_xor_result_flopped_a_10
*185 multiplied_xor_result_flopped_a_11
*186 multiplied_xor_result_flopped_a_12
*187 multiplied_xor_result_flopped_a_13
*188 multiplied_xor_result_flopped_a_14
*189 multiplied_xor_result_flopped_a_15
*190 multiplied_xor_result_flopped_b_0
*191 multiplied_xor_result_flopped_b_1
*192 multiplied_xor_result_flopped_b_2
*193 multiplied_xor_result_flopped_b_3
*194 multiplied_xor_result_flopped_b_4
*195 multiplied_xor_result_flopped_b_5
*196 multiplied_xor_result_flopped_b_6
*197 multiplied_xor_result_flopped_b_7
*198 multiplied_xor_result_flopped_b_8
*199 multiplied_xor_result_flopped_b_9
*200 multiplied_xor_result_flopped_b_10
*201 multiplied_xor_result_flopped_b_11
*202 multiplied_xor_result_flopped_b_12
*203 multiplied_xor_result_flopped_b_13
*204 multiplied_xor_result_flopped_b_14
*205 multiplied_xor_result_flopped_b_15
*206 result_unflopped_0_0
*207 result_unflopped_0_1
*208 result_unflopped_0_2
*209 result_unflopped_0_3
*210 result_unflopped_0_4
*211 result_unflopped_0_5
*212 result_unflopped_0_6
*213 result_unflopped_0_7
*214 result_unflopped_0_8
*215 result_unflopped_0_9
*216 result_unflopped_0_10
*217 result_unflopped_0_11
*218 result_unflopped_0_12
*219 result_unflopped_0_13
*220 result_unflopped_0_14
*221 result_unflopped_0_15
*222 result[0]
*223 result[1]
*224 result[2]
*225 result[3]
*226 result[4]
*227 result[5]
*228 result[6]
*229 result[7]
*230 result[8]
*231 result[9]
*232 result[10]
*233 result[11]
*234 result[12]
*235 result[13]
*236 result[14]
*237 result[15]
*238 multiplied_result_flopped_a_0
*239 multiplied_result_flopped_a_2
*240 multiplied_result_flopped_a_3
*241 multiplied_result_flopped_a_4
*242 multiplied_result_flopped_a_5
*243 multiplied_result_flopped_a_6
*244 multiplied_result_flopped_a_7
*245 multiplied_result_flopped_a_8
*246 multiplied_result_flopped_a_9
*247 multiplied_result_flopped_a_10
*248 multiplied_result_flopped_a_11
*249 multiplied_result_flopped_a_12
*250 multiplied_result_flopped_a_13
*251 multiplied_result_flopped_a_14
*252 multiplied_result_flopped_a_15
*253 multiplied_result_flopped_a_16
*254 multiplied_result_flopped_a_17
*255 multiplied_result_flopped_a_18
*256 multiplied_result_flopped_a_19
*257 multiplied_result_flopped_a_20
*258 multiplied_result_flopped_a_21
*259 multiplied_result_flopped_a_22
*260 multiplied_result_flopped_a_23
*261 multiplied_result_flopped_a_24
*262 multiplied_result_flopped_a_25
*263 multiplied_result_flopped_a_26
*264 multiplied_result_flopped_a_27
*265 multiplied_result_flopped_a_28
*266 multiplied_result_flopped_a_29
*267 multiplied_result_flopped_a_30
*268 multiplied_result_flopped_a_31
*269 multiplied_result_flopped_b_0
*270 multiplied_result_flopped_b_2
*271 multiplied_result_flopped_b_3
*272 multiplied_result_flopped_b_4
*273 multiplied_result_flopped_b_5
*274 multiplied_result_flopped_b_6
*275 multiplied_result_flopped_b_7
*276 multiplied_result_flopped_b_8
*277 multiplied_result_flopped_b_9
*278 multiplied_result_flopped_b_10
*279 multiplied_result_flopped_b_11
*280 multiplied_result_flopped_b_12
*281 multiplied_result_flopped_b_13
*282 multiplied_result_flopped_b_14
*283 multiplied_result_flopped_b_15
*284 multiplied_result_flopped_b_16
*285 multiplied_result_flopped_b_17
*286 multiplied_result_flopped_b_18
*287 multiplied_result_flopped_b_19
*288 multiplied_result_flopped_b_20
*289 multiplied_result_flopped_b_21
*290 multiplied_result_flopped_b_22
*291 multiplied_result_flopped_b_23
*292 multiplied_result_flopped_b_24
*293 multiplied_result_flopped_b_25
*294 multiplied_result_flopped_b_26
*295 multiplied_result_flopped_b_27
*296 multiplied_result_flopped_b_28
*297 multiplied_result_flopped_b_29
*298 multiplied_result_flopped_b_30
*299 multiplied_result_flopped_b_31
*300 n_0
*301 n_1
*302 n_2
*303 n_3
*304 n_4
*305 n_5
*306 n_6
*307 n_7
*308 n_8
*309 n_9
*310 n_10
*311 n_11
*312 n_12
*313 n_13
*314 n_14
*315 n_15
*316 n_16
*317 n_17
*318 n_18
*319 n_19
*320 n_20
*321 n_21
*322 n_22
*323 n_23
*324 n_24
*325 n_25
*326 n_26
*327 n_27
*328 n_28
*329 n_29
*330 clk
*331 square_mul_36_69_n_1
*332 square_mul_36_69_n_2
*333 square_mul_36_69_n_3
*334 square_mul_36_69_n_4
*335 square_mul_36_69_n_5
*336 square_mul_36_69_n_6
*337 square_mul_36_69_n_7
*338 square_mul_36_69_n_8
*339 square_mul_36_69_n_9
*340 square_mul_36_69_n_10
*341 square_mul_36_69_n_11
*342 square_mul_36_69_n_12
*343 square_mul_36_69_n_13
*344 square_mul_36_69_n_14
*345 square_mul_36_69_n_15
*346 square_mul_36_69_n_16
*347 square_mul_36_69_n_17
*348 square_mul_36_69_n_18
*349 square_mul_36_69_n_19
*350 square_mul_36_69_n_20
*351 square_mul_36_69_n_21
*352 square_mul_36_69_n_22
*353 square_mul_36_69_n_23
*354 square_mul_36_69_n_24
*355 square_mul_36_69_n_25
*356 square_mul_36_69_n_26
*357 square_mul_36_69_n_27
*358 square_mul_36_69_n_28
*359 square_mul_36_69_n_29
*360 square_mul_36_69_n_30
*361 square_mul_36_69_n_31
*362 square_mul_36_69_n_32
*363 square_mul_36_69_n_33
*364 square_mul_36_69_n_34
*365 square_mul_36_69_n_35
*366 square_mul_36_69_n_36
*367 square_mul_36_69_n_37
*368 square_mul_36_69_n_38
*369 square_mul_36_69_n_39
*370 square_mul_36_69_n_40
*371 square_mul_36_69_n_41
*372 square_mul_36_69_n_42
*373 square_mul_36_69_n_43
*374 square_mul_36_69_n_44
*375 square_mul_36_69_n_45
*376 square_mul_36_69_n_46
*377 square_mul_36_69_n_47
*378 square_mul_36_69_n_48
*379 square_mul_36_69_n_49
*380 square_mul_36_69_n_50
*381 square_mul_36_69_n_51
*382 square_mul_36_69_n_52
*383 square_mul_36_69_n_53
*384 square_mul_36_69_n_54
*385 square_mul_36_69_n_55
*386 square_mul_36_69_n_56
*387 square_mul_36_69_n_57
*388 square_mul_36_69_n_58
*389 square_mul_36_69_n_59
*390 square_mul_36_69_n_60
*391 square_mul_36_69_n_61
*392 square_mul_36_69_n_62
*393 square_mul_36_69_n_63
*394 square_mul_36_69_n_64
*395 square_mul_36_69_n_65
*396 square_mul_36_69_n_66
*397 square_mul_36_69_n_67
*398 square_mul_36_69_n_68
*399 square_mul_36_69_n_69
*400 square_mul_36_69_n_70
*401 square_mul_36_69_n_71
*402 square_mul_36_69_n_72
*403 square_mul_36_69_n_73
*404 square_mul_36_69_n_74
*405 square_mul_36_69_n_75
*406 square_mul_36_69_n_76
*407 square_mul_36_69_n_77
*408 square_mul_36_69_n_78
*409 square_mul_36_69_n_79
*410 square_mul_36_69_n_80
*411 square_mul_36_69_n_81
*412 square_mul_36_69_n_82
*413 square_mul_36_69_n_83
*414 square_mul_36_69_n_84
*415 square_mul_36_69_n_85
*416 square_mul_36_69_n_86
*417 square_mul_36_69_n_87
*418 square_mul_36_69_n_88
*419 square_mul_36_69_n_89
*420 square_mul_36_69_n_90
*421 square_mul_36_69_n_91
*422 square_mul_36_69_n_92
*423 square_mul_36_69_n_93
*424 square_mul_36_69_n_94
*425 square_mul_36_69_n_95
*426 square_mul_36_69_n_96
*427 square_mul_36_69_n_97
*428 square_mul_36_69_n_98
*429 square_mul_36_69_n_99
*430 square_mul_36_69_n_100
*431 square_mul_36_69_n_101
*432 square_mul_36_69_n_102
*433 square_mul_36_69_n_103
*434 square_mul_36_69_n_104
*435 square_mul_36_69_n_105
*436 square_mul_36_69_n_106
*437 square_mul_36_69_n_107
*438 square_mul_36_69_n_108
*439 square_mul_36_69_n_109
*440 square_mul_36_69_n_110
*441 square_mul_36_69_n_111
*442 square_mul_36_69_n_112
*443 square_mul_36_69_n_113
*444 square_mul_36_69_n_114
*445 square_mul_36_69_n_115
*446 square_mul_36_69_n_116
*447 square_mul_36_69_n_117
*448 square_mul_36_69_n_118
*449 square_mul_36_69_n_119
*450 square_mul_36_69_n_120
*451 square_mul_36_69_n_121
*452 square_mul_36_69_n_122
*453 square_mul_36_69_n_123
*454 square_mul_36_69_n_124
*455 square_mul_36_69_n_125
*456 square_mul_36_69_n_126
*457 square_mul_36_69_n_127
*458 square_mul_36_69_n_128
*459 square_mul_36_69_n_130
*460 square_mul_36_69_n_131
*461 square_mul_36_69_n_132
*462 square_mul_36_69_n_133
*463 square_mul_36_69_n_134
*464 square_mul_36_69_n_135
*465 square_mul_36_69_n_136
*466 square_mul_36_69_n_137
*467 square_mul_36_69_n_138
*468 square_mul_36_69_n_139
*469 square_mul_36_69_n_140
*470 square_mul_36_69_n_141
*471 square_mul_36_69_n_142
*472 square_mul_36_69_n_143
*473 square_mul_36_69_n_144
*474 square_mul_36_69_n_145
*475 square_mul_36_69_n_146
*476 square_mul_36_69_n_147
*477 square_mul_36_69_n_148
*478 square_mul_36_69_n_149
*479 square_mul_36_69_n_150
*480 square_mul_36_69_n_152
*481 square_mul_36_69_n_153
*482 square_mul_36_69_n_154
*483 square_mul_36_69_n_155
*484 square_mul_36_69_n_156
*485 square_mul_36_69_n_157
*486 square_mul_36_69_n_158
*487 square_mul_36_69_n_159
*488 square_mul_36_69_n_160
*489 square_mul_36_69_n_161
*490 square_mul_36_69_n_162
*491 square_mul_36_69_n_163
*492 square_mul_36_69_n_164
*493 square_mul_36_69_n_165
*494 square_mul_36_69_n_166
*495 square_mul_36_69_n_167
*496 square_mul_36_69_n_168
*497 square_mul_36_69_n_169
*498 square_mul_36_69_n_170
*499 square_mul_36_69_n_171
*500 square_mul_36_69_n_172
*501 square_mul_36_69_n_175
*502 square_mul_36_69_n_176
*503 square_mul_36_69_n_177
*504 square_mul_36_69_n_178
*505 square_mul_36_69_n_179
*506 square_mul_36_69_n_180
*507 square_mul_36_69_n_181
*508 square_mul_36_69_n_182
*509 square_mul_36_69_n_183
*510 square_mul_36_69_n_184
*511 square_mul_36_69_n_185
*512 square_mul_36_69_n_186
*513 square_mul_36_69_n_187
*514 square_mul_36_69_n_188
*515 square_mul_36_69_n_189
*516 square_mul_36_69_n_190
*517 square_mul_36_69_n_191
*518 square_mul_36_69_n_192
*519 square_mul_36_69_n_193
*520 square_mul_36_69_n_194
*521 square_mul_36_69_n_195
*522 square_mul_36_69_n_196
*523 square_mul_36_69_n_197
*524 square_mul_36_69_n_198
*525 square_mul_36_69_n_199
*526 square_mul_36_69_n_200
*527 square_mul_36_69_n_201
*528 square_mul_36_69_n_202
*529 square_mul_36_69_n_203
*530 square_mul_36_69_n_204
*531 square_mul_36_69_n_205
*532 square_mul_36_69_n_206
*533 square_mul_36_69_n_207
*534 square_mul_36_69_n_208
*535 square_mul_36_69_n_209
*536 square_mul_36_69_n_210
*537 square_mul_36_69_n_211
*538 square_mul_36_69_n_212
*539 square_mul_36_69_n_213
*540 square_mul_36_69_n_214
*541 square_mul_36_69_n_215
*542 square_mul_36_69_n_216
*543 square_mul_36_69_n_217
*544 square_mul_36_69_n_218
*545 square_mul_36_69_n_219
*546 square_mul_36_69_n_220
*547 square_mul_36_69_n_221
*548 square_mul_36_69_n_222
*549 square_mul_36_69_n_223
*550 square_mul_36_69_n_224
*551 square_mul_36_69_n_225
*552 square_mul_36_69_n_227
*553 square_mul_36_69_n_228
*554 square_mul_36_69_n_229
*555 square_mul_36_69_n_230
*556 square_mul_36_69_n_231
*557 square_mul_36_69_n_232
*558 square_mul_36_69_n_233
*559 square_mul_36_69_n_234
*560 square_mul_36_69_n_235
*561 square_mul_36_69_n_236
*562 square_mul_36_69_n_237
*563 square_mul_36_69_n_238
*564 square_mul_36_69_n_239
*565 square_mul_36_69_n_240
*566 square_mul_36_69_n_241
*567 square_mul_36_69_n_242
*568 square_mul_36_69_n_244
*569 square_mul_36_69_n_245
*570 square_mul_36_69_n_246
*571 square_mul_36_69_n_247
*572 square_mul_36_69_n_248
*573 square_mul_36_69_n_249
*574 square_mul_36_69_n_251
*575 square_mul_36_69_n_252
*576 square_mul_36_69_n_253
*577 square_mul_36_69_n_254
*578 square_mul_36_69_n_255
*579 square_mul_36_69_n_256
*580 square_mul_36_69_n_258
*581 square_mul_36_69_n_259
*582 square_mul_36_69_n_260
*583 square_mul_36_69_n_261
*584 square_mul_36_69_n_262
*585 square_mul_36_69_n_263
*586 square_mul_36_69_n_264
*587 square_mul_36_69_n_265
*588 square_mul_36_69_n_266
*589 square_mul_36_69_n_267
*590 square_mul_36_69_n_268
*591 square_mul_36_69_n_269
*592 square_mul_36_69_n_270
*593 square_mul_36_69_n_271
*594 square_mul_36_69_n_272
*595 square_mul_36_69_n_273
*596 square_mul_36_69_n_274
*597 square_mul_36_69_n_275
*598 square_mul_36_69_n_276
*599 square_mul_36_69_n_277
*600 square_mul_36_69_n_278
*601 square_mul_36_69_n_279
*602 square_mul_36_69_n_280
*603 square_mul_36_69_n_281
*604 square_mul_36_69_n_282
*605 square_mul_36_69_n_283
*606 square_mul_36_69_n_284
*607 square_mul_36_69_n_285
*608 square_mul_36_69_n_286
*609 square_mul_36_69_n_287
*610 square_mul_36_69_n_288
*611 square_mul_36_69_n_290
*612 square_mul_36_69_n_291
*613 square_mul_36_69_n_292
*614 square_mul_36_69_n_293
*615 square_mul_36_69_n_294
*616 square_mul_36_69_n_295
*617 square_mul_36_69_n_296
*618 square_mul_36_69_n_297
*619 square_mul_36_69_n_298
*620 square_mul_36_69_n_299
*621 square_mul_36_69_n_300
*622 square_mul_36_69_n_301
*623 square_mul_36_69_n_302
*624 square_mul_36_69_n_303
*625 square_mul_36_69_n_304
*626 square_mul_36_69_n_305
*627 square_mul_36_69_n_306
*628 square_mul_36_69_n_307
*629 square_mul_36_69_n_308
*630 square_mul_36_69_n_309
*631 square_mul_36_69_n_310
*632 square_mul_36_69_n_311
*633 square_mul_36_69_n_312
*634 square_mul_36_69_n_313
*635 square_mul_36_69_n_314
*636 square_mul_36_69_n_316
*637 square_mul_36_69_n_317
*638 square_mul_36_69_n_318
*639 square_mul_36_69_n_319
*640 square_mul_36_69_n_320
*641 square_mul_36_69_n_321
*642 square_mul_36_69_n_322
*643 square_mul_36_69_n_324
*644 square_mul_36_69_n_325
*645 square_mul_36_69_n_326
*646 square_mul_36_69_n_327
*647 square_mul_36_69_n_328
*648 square_mul_36_69_n_329
*649 square_mul_36_69_n_330
*650 square_mul_36_69_n_331
*651 square_mul_36_69_n_332
*652 square_mul_36_69_n_333
*653 square_mul_36_69_n_334
*654 square_mul_36_69_n_336
*655 square_mul_36_69_n_338
*656 square_mul_36_69_n_340
*657 square_mul_36_69_n_342
*658 square_mul_36_69_n_344
*659 square_mul_36_69_n_346
*660 square_mul_36_69_n_348
*661 square_mul_36_69_n_350
*662 square_mul_36_69_n_352
*663 square_mul_36_69_n_354
*664 square_mul_36_69_n_356
*665 square_mul_36_69_n_358
*666 square_mul_36_69_n_360
*667 square_mul_36_69_n_362
*668 square_mul_36_69_n_364
*669 square_mul_36_69_n_366
*670 square_mul_36_69_n_368
*671 square_mul_36_69_n_371
*672 square_mul_36_69_n_372
*673 square_mul_36_69_n_373
*674 square_mul_36_69_n_375
*675 square_mul_36_69_n_376
*676 square_mul_36_69_n_378
*677 square_mul_36_69_n_379
*678 square_mul_37_69_n_1
*679 square_mul_37_69_n_2
*680 square_mul_37_69_n_3
*681 square_mul_37_69_n_4
*682 square_mul_37_69_n_5
*683 square_mul_37_69_n_6
*684 square_mul_37_69_n_7
*685 square_mul_37_69_n_8
*686 square_mul_37_69_n_9
*687 square_mul_37_69_n_10
*688 square_mul_37_69_n_11
*689 square_mul_37_69_n_12
*690 square_mul_37_69_n_13
*691 square_mul_37_69_n_14
*692 square_mul_37_69_n_15
*693 square_mul_37_69_n_16
*694 square_mul_37_69_n_17
*695 square_mul_37_69_n_18
*696 square_mul_37_69_n_19
*697 square_mul_37_69_n_20
*698 square_mul_37_69_n_21
*699 square_mul_37_69_n_22
*700 square_mul_37_69_n_23
*701 square_mul_37_69_n_24
*702 square_mul_37_69_n_25
*703 square_mul_37_69_n_26
*704 square_mul_37_69_n_27
*705 square_mul_37_69_n_28
*706 square_mul_37_69_n_29
*707 square_mul_37_69_n_30
*708 square_mul_37_69_n_31
*709 square_mul_37_69_n_32
*710 square_mul_37_69_n_33
*711 square_mul_37_69_n_34
*712 square_mul_37_69_n_35
*713 square_mul_37_69_n_36
*714 square_mul_37_69_n_37
*715 square_mul_37_69_n_38
*716 square_mul_37_69_n_39
*717 square_mul_37_69_n_40
*718 square_mul_37_69_n_41
*719 square_mul_37_69_n_42
*720 square_mul_37_69_n_43
*721 square_mul_37_69_n_44
*722 square_mul_37_69_n_45
*723 square_mul_37_69_n_46
*724 square_mul_37_69_n_47
*725 square_mul_37_69_n_48
*726 square_mul_37_69_n_49
*727 square_mul_37_69_n_50
*728 square_mul_37_69_n_51
*729 square_mul_37_69_n_52
*730 square_mul_37_69_n_53
*731 square_mul_37_69_n_54
*732 square_mul_37_69_n_55
*733 square_mul_37_69_n_56
*734 square_mul_37_69_n_57
*735 square_mul_37_69_n_58
*736 square_mul_37_69_n_59
*737 square_mul_37_69_n_60
*738 square_mul_37_69_n_61
*739 square_mul_37_69_n_62
*740 square_mul_37_69_n_63
*741 square_mul_37_69_n_64
*742 square_mul_37_69_n_65
*743 square_mul_37_69_n_66
*744 square_mul_37_69_n_67
*745 square_mul_37_69_n_68
*746 square_mul_37_69_n_69
*747 square_mul_37_69_n_70
*748 square_mul_37_69_n_71
*749 square_mul_37_69_n_72
*750 square_mul_37_69_n_73
*751 square_mul_37_69_n_74
*752 square_mul_37_69_n_75
*753 square_mul_37_69_n_76
*754 square_mul_37_69_n_77
*755 square_mul_37_69_n_78
*756 square_mul_37_69_n_79
*757 square_mul_37_69_n_80
*758 square_mul_37_69_n_81
*759 square_mul_37_69_n_82
*760 square_mul_37_69_n_83
*761 square_mul_37_69_n_84
*762 square_mul_37_69_n_85
*763 square_mul_37_69_n_86
*764 square_mul_37_69_n_87
*765 square_mul_37_69_n_88
*766 square_mul_37_69_n_89
*767 square_mul_37_69_n_90
*768 square_mul_37_69_n_91
*769 square_mul_37_69_n_92
*770 square_mul_37_69_n_93
*771 square_mul_37_69_n_94
*772 square_mul_37_69_n_95
*773 square_mul_37_69_n_96
*774 square_mul_37_69_n_97
*775 square_mul_37_69_n_98
*776 square_mul_37_69_n_99
*777 square_mul_37_69_n_100
*778 square_mul_37_69_n_101
*779 square_mul_37_69_n_102
*780 square_mul_37_69_n_103
*781 square_mul_37_69_n_104
*782 square_mul_37_69_n_105
*783 square_mul_37_69_n_106
*784 square_mul_37_69_n_107
*785 square_mul_37_69_n_108
*786 square_mul_37_69_n_109
*787 square_mul_37_69_n_110
*788 square_mul_37_69_n_111
*789 square_mul_37_69_n_112
*790 square_mul_37_69_n_113
*791 square_mul_37_69_n_114
*792 square_mul_37_69_n_115
*793 square_mul_37_69_n_116
*794 square_mul_37_69_n_117
*795 square_mul_37_69_n_118
*796 square_mul_37_69_n_119
*797 square_mul_37_69_n_120
*798 square_mul_37_69_n_121
*799 square_mul_37_69_n_122
*800 square_mul_37_69_n_123
*801 square_mul_37_69_n_124
*802 square_mul_37_69_n_125
*803 square_mul_37_69_n_126
*804 square_mul_37_69_n_127
*805 square_mul_37_69_n_128
*806 square_mul_37_69_n_130
*807 square_mul_37_69_n_131
*808 square_mul_37_69_n_132
*809 square_mul_37_69_n_133
*810 square_mul_37_69_n_134
*811 square_mul_37_69_n_135
*812 square_mul_37_69_n_136
*813 square_mul_37_69_n_137
*814 square_mul_37_69_n_138
*815 square_mul_37_69_n_139
*816 square_mul_37_69_n_140
*817 square_mul_37_69_n_141
*818 square_mul_37_69_n_142
*819 square_mul_37_69_n_143
*820 square_mul_37_69_n_144
*821 square_mul_37_69_n_145
*822 square_mul_37_69_n_146
*823 square_mul_37_69_n_147
*824 square_mul_37_69_n_148
*825 square_mul_37_69_n_149
*826 square_mul_37_69_n_150
*827 square_mul_37_69_n_152
*828 square_mul_37_69_n_153
*829 square_mul_37_69_n_154
*830 square_mul_37_69_n_155
*831 square_mul_37_69_n_156
*832 square_mul_37_69_n_157
*833 square_mul_37_69_n_158
*834 square_mul_37_69_n_159
*835 square_mul_37_69_n_160
*836 square_mul_37_69_n_161
*837 square_mul_37_69_n_162
*838 square_mul_37_69_n_163
*839 square_mul_37_69_n_164
*840 square_mul_37_69_n_165
*841 square_mul_37_69_n_166
*842 square_mul_37_69_n_167
*843 square_mul_37_69_n_168
*844 square_mul_37_69_n_169
*845 square_mul_37_69_n_170
*846 square_mul_37_69_n_171
*847 square_mul_37_69_n_172
*848 square_mul_37_69_n_175
*849 square_mul_37_69_n_176
*850 square_mul_37_69_n_177
*851 square_mul_37_69_n_178
*852 square_mul_37_69_n_179
*853 square_mul_37_69_n_180
*854 square_mul_37_69_n_181
*855 square_mul_37_69_n_182
*856 square_mul_37_69_n_183
*857 square_mul_37_69_n_184
*858 square_mul_37_69_n_185
*859 square_mul_37_69_n_186
*860 square_mul_37_69_n_187
*861 square_mul_37_69_n_188
*862 square_mul_37_69_n_189
*863 square_mul_37_69_n_190
*864 square_mul_37_69_n_191
*865 square_mul_37_69_n_192
*866 square_mul_37_69_n_193
*867 square_mul_37_69_n_194
*868 square_mul_37_69_n_195
*869 square_mul_37_69_n_196
*870 square_mul_37_69_n_197
*871 square_mul_37_69_n_198
*872 square_mul_37_69_n_199
*873 square_mul_37_69_n_200
*874 square_mul_37_69_n_201
*875 square_mul_37_69_n_202
*876 square_mul_37_69_n_203
*877 square_mul_37_69_n_204
*878 square_mul_37_69_n_205
*879 square_mul_37_69_n_206
*880 square_mul_37_69_n_207
*881 square_mul_37_69_n_208
*882 square_mul_37_69_n_209
*883 square_mul_37_69_n_210
*884 square_mul_37_69_n_211
*885 square_mul_37_69_n_212
*886 square_mul_37_69_n_213
*887 square_mul_37_69_n_214
*888 square_mul_37_69_n_215
*889 square_mul_37_69_n_216
*890 square_mul_37_69_n_217
*891 square_mul_37_69_n_218
*892 square_mul_37_69_n_219
*893 square_mul_37_69_n_220
*894 square_mul_37_69_n_221
*895 square_mul_37_69_n_222
*896 square_mul_37_69_n_223
*897 square_mul_37_69_n_224
*898 square_mul_37_69_n_225
*899 square_mul_37_69_n_227
*900 square_mul_37_69_n_228
*901 square_mul_37_69_n_229
*902 square_mul_37_69_n_230
*903 square_mul_37_69_n_231
*904 square_mul_37_69_n_232
*905 square_mul_37_69_n_233
*906 square_mul_37_69_n_234
*907 square_mul_37_69_n_235
*908 square_mul_37_69_n_236
*909 square_mul_37_69_n_237
*910 square_mul_37_69_n_238
*911 square_mul_37_69_n_239
*912 square_mul_37_69_n_240
*913 square_mul_37_69_n_241
*914 square_mul_37_69_n_242
*915 square_mul_37_69_n_244
*916 square_mul_37_69_n_245
*917 square_mul_37_69_n_246
*918 square_mul_37_69_n_247
*919 square_mul_37_69_n_248
*920 square_mul_37_69_n_249
*921 square_mul_37_69_n_251
*922 square_mul_37_69_n_252
*923 square_mul_37_69_n_253
*924 square_mul_37_69_n_254
*925 square_mul_37_69_n_255
*926 square_mul_37_69_n_256
*927 square_mul_37_69_n_258
*928 square_mul_37_69_n_259
*929 square_mul_37_69_n_260
*930 square_mul_37_69_n_261
*931 square_mul_37_69_n_262
*932 square_mul_37_69_n_263
*933 square_mul_37_69_n_264
*934 square_mul_37_69_n_265
*935 square_mul_37_69_n_266
*936 square_mul_37_69_n_267
*937 square_mul_37_69_n_268
*938 square_mul_37_69_n_269
*939 square_mul_37_69_n_270
*940 square_mul_37_69_n_271
*941 square_mul_37_69_n_272
*942 square_mul_37_69_n_273
*943 square_mul_37_69_n_274
*944 square_mul_37_69_n_275
*945 square_mul_37_69_n_276
*946 square_mul_37_69_n_277
*947 square_mul_37_69_n_278
*948 square_mul_37_69_n_279
*949 square_mul_37_69_n_280
*950 square_mul_37_69_n_281
*951 square_mul_37_69_n_282
*952 square_mul_37_69_n_283
*953 square_mul_37_69_n_284
*954 square_mul_37_69_n_285
*955 square_mul_37_69_n_286
*956 square_mul_37_69_n_287
*957 square_mul_37_69_n_288
*958 square_mul_37_69_n_290
*959 square_mul_37_69_n_291
*960 square_mul_37_69_n_292
*961 square_mul_37_69_n_293
*962 square_mul_37_69_n_294
*963 square_mul_37_69_n_295
*964 square_mul_37_69_n_296
*965 square_mul_37_69_n_297
*966 square_mul_37_69_n_298
*967 square_mul_37_69_n_299
*968 square_mul_37_69_n_300
*969 square_mul_37_69_n_301
*970 square_mul_37_69_n_302
*971 square_mul_37_69_n_303
*972 square_mul_37_69_n_304
*973 square_mul_37_69_n_305
*974 square_mul_37_69_n_306
*975 square_mul_37_69_n_307
*976 square_mul_37_69_n_308
*977 square_mul_37_69_n_309
*978 square_mul_37_69_n_310
*979 square_mul_37_69_n_311
*980 square_mul_37_69_n_312
*981 square_mul_37_69_n_313
*982 square_mul_37_69_n_314
*983 square_mul_37_69_n_316
*984 square_mul_37_69_n_317
*985 square_mul_37_69_n_318
*986 square_mul_37_69_n_319
*987 square_mul_37_69_n_320
*988 square_mul_37_69_n_321
*989 square_mul_37_69_n_322
*990 square_mul_37_69_n_324
*991 square_mul_37_69_n_325
*992 square_mul_37_69_n_326
*993 square_mul_37_69_n_327
*994 square_mul_37_69_n_328
*995 square_mul_37_69_n_329
*996 square_mul_37_69_n_330
*997 square_mul_37_69_n_331
*998 square_mul_37_69_n_332
*999 square_mul_37_69_n_333
*1000 square_mul_37_69_n_334
*1001 square_mul_37_69_n_336
*1002 square_mul_37_69_n_338
*1003 square_mul_37_69_n_340
*1004 square_mul_37_69_n_342
*1005 square_mul_37_69_n_344
*1006 square_mul_37_69_n_346
*1007 square_mul_37_69_n_348
*1008 square_mul_37_69_n_350
*1009 square_mul_37_69_n_352
*1010 square_mul_37_69_n_354
*1011 square_mul_37_69_n_356
*1012 square_mul_37_69_n_358
*1013 square_mul_37_69_n_360
*1014 square_mul_37_69_n_362
*1015 square_mul_37_69_n_364
*1016 square_mul_37_69_n_366
*1017 square_mul_37_69_n_368
*1018 square_mul_37_69_n_371
*1019 square_mul_37_69_n_372
*1020 square_mul_37_69_n_373
*1021 square_mul_37_69_n_375
*1022 square_mul_37_69_n_376
*1023 square_mul_37_69_n_378
*1024 square_mul_37_69_n_379
*1025 n_398
*1026 n_399
*1027 iDUT/g161__8780
*1028 iDUT/g162__4296
*1029 iDUT/g163__3772
*1030 iDUT/g164__1474
*1031 iDUT/g165__4547
*1032 iDUT/g166__9682
*1033 iDUT/g167__2683
*1034 iDUT/g168__1309
*1035 iDUT/g169__6877
*1036 iDUT/g170__2900
*1037 iDUT/g171__2391
*1038 iDUT/g172__7675
*1039 iDUT/g173__7118
*1040 iDUT/g174__8757
*1041 iDUT/g175__1786
*1042 iDUT/g176__5953
*1043 a_flopped_reg_0_0
*1044 a_flopped_reg_0_1
*1045 a_flopped_reg_0_2
*1046 a_flopped_reg_0_3
*1047 a_flopped_reg_0_4
*1048 a_flopped_reg_0_5
*1049 a_flopped_reg_0_6
*1050 a_flopped_reg_0_7
*1051 a_flopped_reg_0_8
*1052 a_flopped_reg_0_9
*1053 a_flopped_reg_0_10
*1054 a_flopped_reg_0_11
*1055 a_flopped_reg_0_12
*1056 a_flopped_reg_0_13
*1057 a_flopped_reg_0_14
*1058 a_flopped_reg_0_15
*1059 b_flopped_reg_0_0
*1060 b_flopped_reg_0_1
*1061 b_flopped_reg_0_2
*1062 b_flopped_reg_0_3
*1063 b_flopped_reg_0_4
*1064 b_flopped_reg_0_5
*1065 b_flopped_reg_0_6
*1066 b_flopped_reg_0_7
*1067 b_flopped_reg_0_8
*1068 b_flopped_reg_0_9
*1069 b_flopped_reg_0_10
*1070 b_flopped_reg_0_11
*1071 b_flopped_reg_0_12
*1072 b_flopped_reg_0_13
*1073 b_flopped_reg_0_14
*1074 b_flopped_reg_0_15
*1075 multiplied_result_flopped_a_reg_0
*1076 multiplied_result_flopped_a_reg_2
*1077 multiplied_result_flopped_a_reg_3
*1078 multiplied_result_flopped_a_reg_4
*1079 multiplied_result_flopped_a_reg_5
*1080 multiplied_result_flopped_a_reg_6
*1081 multiplied_result_flopped_a_reg_7
*1082 multiplied_result_flopped_a_reg_8
*1083 multiplied_result_flopped_a_reg_9
*1084 multiplied_result_flopped_a_reg_10
*1085 multiplied_result_flopped_a_reg_11
*1086 multiplied_result_flopped_a_reg_12
*1087 multiplied_result_flopped_a_reg_13
*1088 multiplied_result_flopped_a_reg_14
*1089 multiplied_result_flopped_a_reg_15
*1090 multiplied_result_flopped_a_reg_16
*1091 multiplied_result_flopped_a_reg_17
*1092 multiplied_result_flopped_a_reg_18
*1093 multiplied_result_flopped_a_reg_19
*1094 multiplied_result_flopped_a_reg_20
*1095 multiplied_result_flopped_a_reg_21
*1096 multiplied_result_flopped_a_reg_22
*1097 multiplied_result_flopped_a_reg_23
*1098 multiplied_result_flopped_a_reg_24
*1099 multiplied_result_flopped_a_reg_25
*1100 multiplied_result_flopped_a_reg_26
*1101 multiplied_result_flopped_a_reg_27
*1102 multiplied_result_flopped_a_reg_28
*1103 multiplied_result_flopped_a_reg_29
*1104 multiplied_result_flopped_a_reg_30
*1105 multiplied_result_flopped_a_reg_31
*1106 multiplied_result_flopped_b_reg_0
*1107 multiplied_result_flopped_b_reg_2
*1108 multiplied_result_flopped_b_reg_3
*1109 multiplied_result_flopped_b_reg_4
*1110 multiplied_result_flopped_b_reg_5
*1111 multiplied_result_flopped_b_reg_6
*1112 multiplied_result_flopped_b_reg_7
*1113 multiplied_result_flopped_b_reg_8
*1114 multiplied_result_flopped_b_reg_9
*1115 multiplied_result_flopped_b_reg_10