*SPEF "IEEE 1481-1998"
*DESIGN "RightShift_16_flopped"
*DATE "Tue Apr 22 11:36:18 am 2025"
*VENDOR "Cadence Design Systems"
*PROGRAM "Genus(TM) Synthesis Solution"
*VERSION "18.14-s037_1"
*DESIGN_FLOW "PIN_CAP NONE" "NAME_SCOPE LOCAL"
*DIVIDER /
*DELIMITER :
*BUS_DELIMITER []
*T_UNIT 1 NS
*C_UNIT 1 PF
*R_UNIT 1 OHM
*L_UNIT 1 HENRY
// Interconnect mode: global

*NAME_MAP

*1 a[15]
*2 a[14]
*3 a[13]
*4 a[12]
*5 a[11]
*6 a[10]
*7 a[9]
*8 a[8]
*9 a[7]
*10 a[6]
*11 a[5]
*12 a[4]
*13 a[3]
*14 a[2]
*15 a[1]
*16 a[0]
*17 b[15]
*18 b[14]
*19 b[13]
*20 b[12]
*21 b[11]
*22 b[10]
*23 b[9]
*24 b[8]
*25 b[7]
*26 b[6]
*27 b[5]
*28 b[4]
*29 b[3]
*30 b[2]
*31 b[1]
*32 b[0]
*33 clk
*34 sum_flopped[15]
*35 sum_flopped[14]
*36 sum_flopped[13]
*37 sum_flopped[12]
*38 sum_flopped[11]
*39 sum_flopped[10]
*40 sum_flopped[9]
*41 sum_flopped[8]
*42 sum_flopped[7]
*43 sum_flopped[6]
*44 sum_flopped[5]
*45 sum_flopped[4]
*46 sum_flopped[3]
*47 sum_flopped[2]
*48 sum_flopped[1]
*49 sum_flopped[0]
*50 a[0]
*51 a[1]
*52 a[2]
*53 a[3]
*54 a[4]
*55 a[5]
*56 a[6]
*57 a[7]
*58 a[8]
*59 a[9]
*60 a[10]
*61 a[11]
*62 a[12]
*63 a[13]
*64 a[14]
*65 a[15]
*66 a_flopped_0_0
*67 a_flopped_0_1
*68 a_flopped_0_2
*69 a_flopped_0_3
*70 a_flopped_0_4
*71 a_flopped_0_5
*72 a_flopped_0_6
*73 a_flopped_0_7
*74 a_flopped_0_8
*75 a_flopped_0_9
*76 a_flopped_0_10
*77 a_flopped_0_11
*78 a_flopped_0_12
*79 a_flopped_0_13
*80 a_flopped_0_14
*81 a_flopped_0_15
*82 b[0]
*83 b[1]
*84 b[2]
*85 b[3]
*86 b[4]
*87 b[5]
*88 b[6]
*89 b[7]
*90 b[8]
*91 b[9]
*92 b[10]
*93 b[11]
*94 b[12]
*95 b[13]
*96 b[14]
*97 b[15]
*98 b_flopped_0_0
*99 b_flopped_0_1
*100 b_flopped_0_2
*101 b_flopped_0_3
*102 b_flopped_0_4
*103 b_flopped_0_5
*104 b_flopped_0_6
*105 b_flopped_0_7
*106 b_flopped_0_8
*107 b_flopped_0_9
*108 b_flopped_0_10
*109 b_flopped_0_11
*110 b_flopped_0_12
*111 b_flopped_0_13
*112 b_flopped_0_14
*113 b_flopped_0_15
*114 multiplied_result_a_2
*115 multiplied_result_a_3
*116 multiplied_result_a_4
*117 multiplied_result_a_5
*118 multiplied_result_a_6
*119 multiplied_result_a_7
*120 multiplied_result_a_8
*121 multiplied_result_a_9
*122 multiplied_result_a_10
*123 multiplied_result_a_11
*124 multiplied_result_a_12
*125 multiplied_result_a_13
*126 multiplied_result_a_14
*127 multiplied_result_a_15
*128 multiplied_result_a_16
*129 multiplied_result_a_17
*130 multiplied_result_a_18
*131 multiplied_result_a_19
*132 multiplied_result_a_20
*133 multiplied_result_a_21
*134 multiplied_result_a_22
*135 multiplied_result_a_23
*136 multiplied_result_a_24
*137 multiplied_result_a_25
*138 multiplied_result_a_26
*139 multiplied_result_a_27
*140 multiplied_result_a_28
*141 multiplied_result_a_29
*142 multiplied_result_a_30
*143 multiplied_result_a_31
*144 multiplied_result_b_2
*145 multiplied_result_b_3
*146 multiplied_result_b_4
*147 multiplied_result_b_5
*148 multiplied_result_b_6
*149 multiplied_result_b_7
*150 multiplied_result_b_8
*151 multiplied_result_b_9
*152 multiplied_result_b_10
*153 multiplied_result_b_11
*154 multiplied_result_b_12
*155 multiplied_result_b_13
*156 multiplied_result_b_14
*157 multiplied_result_b_15
*158 multiplied_result_b_16
*159 multiplied_result_b_17
*160 multiplied_result_b_18
*161 multiplied_result_b_19
*162 multiplied_result_b_20
*163 multiplied_result_b_21
*164 multiplied_result_b_22
*165 multiplied_result_b_23
*166 multiplied_result_b_24
*167 multiplied_result_b_25
*168 multiplied_result_b_26
*169 multiplied_result_b_27
*170 multiplied_result_b_28
*171 multiplied_result_b_29
*172 multiplied_result_b_30
*173 multiplied_result_b_31
*174 multiplied_xor_result_flopped_a_0
*175 multiplied_xor_result_flopped_a_1
*176 multiplied_xor_result_flopped_a_2
*177 multiplied_xor_result_flopped_a_3
*178 multiplied_xor_result_flopped_a_4
*179 multiplied_xor_result_flopped_a_5
*180 multiplied_xor_result_flopped_a_6
*181 multiplied_xor_result_flopped_a_7
*182 multiplied_xor_result_flopped_a_8
*183 multiplied_xor_result_flopped_a_9
*184 multiplied_xor_result_flopped_a_10
*185 multiplied_xor_result_flopped_a_11
*186 multiplied_xor_result_flopped_a_12
*187 multiplied_xor_result_flopped_a_13
*188 multiplied_xor_result_flopped_a_14
*189 multiplied_xor_result_flopped_a_15
*190 multiplied_xor_result_flopped_b_0
*191 multiplied_xor_result_flopped_b_1
*192 multiplied_xor_result_flopped_b_2
*193 multiplied_xor_result_flopped_b_3
*194 multiplied_xor_result_flopped_b_4
*195 multiplied_xor_result_flopped_b_5
*196 multiplied_xor_result_flopped_b_6
*197 multiplied_xor_result_flopped_b_7
*198 multiplied_xor_result_flopped_b_8
*199 multiplied_xor_result_flopped_b_9
*200 multiplied_xor_result_flopped_b_10
*201 multiplied_xor_result_flopped_b_11
*202 multiplied_xor_result_flopped_b_12
*203 multiplied_xor_result_flopped_b_13
*204 multiplied_xor_result_flopped_b_14
*205 multiplied_xor_result_flopped_b_15
*206 sum_flopped[0]
*207 sum_flopped[1]
*208 sum_flopped[2]
*209 sum_flopped[3]
*210 sum_flopped[4]
*211 sum_flopped[5]
*212 sum_flopped[6]
*213 sum_flopped[7]
*214 sum_flopped[8]
*215 sum_flopped[9]
*216 sum_flopped[10]
*217 sum_flopped[11]
*218 sum_flopped[12]
*219 sum_flopped[13]
*220 sum_flopped[14]
*221 sum_flopped[15]
*222 sum_unflopped_0_0
*223 sum_unflopped_0_1
*224 sum_unflopped_0_2
*225 sum_unflopped_0_3
*226 sum_unflopped_0_4
*227 sum_unflopped_0_5
*228 sum_unflopped_0_6
*229 sum_unflopped_0_7
*230 sum_unflopped_0_8
*231 sum_unflopped_0_9
*232 sum_unflopped_0_10
*233 sum_unflopped_0_11
*234 sum_unflopped_0_12
*235 sum_unflopped_0_13
*236 sum_unflopped_0_14
*237 sum_unflopped_0_15
*238 multiplied_result_flopped_a_0
*239 multiplied_result_flopped_a_2
*240 multiplied_result_flopped_a_3
*241 multiplied_result_flopped_a_4
*242 multiplied_result_flopped_a_5
*243 multiplied_result_flopped_a_6
*244 multiplied_result_flopped_a_7
*245 multiplied_result_flopped_a_8
*246 multiplied_result_flopped_a_9
*247 multiplied_result_flopped_a_10
*248 multiplied_result_flopped_a_11
*249 multiplied_result_flopped_a_12
*250 multiplied_result_flopped_a_13
*251 multiplied_result_flopped_a_14
*252 multiplied_result_flopped_a_15
*253 multiplied_result_flopped_a_16
*254 multiplied_result_flopped_a_17
*255 multiplied_result_flopped_a_18
*256 multiplied_result_flopped_a_19
*257 multiplied_result_flopped_a_20
*258 multiplied_result_flopped_a_21
*259 multiplied_result_flopped_a_22
*260 multiplied_result_flopped_a_23
*261 multiplied_result_flopped_a_24
*262 multiplied_result_flopped_a_25
*263 multiplied_result_flopped_a_26
*264 multiplied_result_flopped_a_27
*265 multiplied_result_flopped_a_28
*266 multiplied_result_flopped_a_29
*267 multiplied_result_flopped_a_30
*268 multiplied_result_flopped_a_31
*269 multiplied_result_flopped_b_0
*270 multiplied_result_flopped_b_2
*271 multiplied_result_flopped_b_3
*272 multiplied_result_flopped_b_4
*273 multiplied_result_flopped_b_5
*274 multiplied_result_flopped_b_6
*275 multiplied_result_flopped_b_7
*276 multiplied_result_flopped_b_8
*277 multiplied_result_flopped_b_9
*278 multiplied_result_flopped_b_10
*279 multiplied_result_flopped_b_11
*280 multiplied_result_flopped_b_12
*281 multiplied_result_flopped_b_13
*282 multiplied_result_flopped_b_14
*283 multiplied_result_flopped_b_15
*284 multiplied_result_flopped_b_16
*285 multiplied_result_flopped_b_17
*286 multiplied_result_flopped_b_18
*287 multiplied_result_flopped_b_19
*288 multiplied_result_flopped_b_20
*289 multiplied_result_flopped_b_21
*290 multiplied_result_flopped_b_22
*291 multiplied_result_flopped_b_23
*292 multiplied_result_flopped_b_24
*293 multiplied_result_flopped_b_25
*294 multiplied_result_flopped_b_26
*295 multiplied_result_flopped_b_27
*296 multiplied_result_flopped_b_28
*297 multiplied_result_flopped_b_29
*298 multiplied_result_flopped_b_30
*299 multiplied_result_flopped_b_31
*300 sum_unflopped_1_0
*301 sum_unflopped_1_1
*302 sum_unflopped_1_2
*303 sum_unflopped_1_3
*304 sum_unflopped_1_4
*305 sum_unflopped_1_5
*306 sum_unflopped_1_6
*307 sum_unflopped_1_7
*308 sum_unflopped_1_8
*309 sum_unflopped_1_9
*310 sum_unflopped_1_10
*311 sum_unflopped_1_11
*312 sum_unflopped_1_12
*313 sum_unflopped_1_13
*314 sum_unflopped_1_14
*315 sum_unflopped_1_15
*316 n_0
*317 n_1
*318 n_2
*319 n_3
*320 n_4
*321 n_5
*322 n_6
*323 n_7
*324 n_8
*325 n_9
*326 n_10
*327 n_11
*328 n_12
*329 n_13
*330 n_14
*331 n_15
*332 n_16
*333 n_17
*334 n_18
*335 n_19
*336 n_20
*337 n_21
*338 n_22
*339 n_23
*340 n_24
*341 n_25
*342 n_26
*343 n_27
*344 n_28
*345 n_29
*346 clk
*347 square_mul_50_69_n_1
*348 square_mul_50_69_n_2
*349 square_mul_50_69_n_3
*350 square_mul_50_69_n_4
*351 square_mul_50_69_n_5
*352 square_mul_50_69_n_6
*353 square_mul_50_69_n_7
*354 square_mul_50_69_n_8
*355 square_mul_50_69_n_9
*356 square_mul_50_69_n_10
*357 square_mul_50_69_n_11
*358 square_mul_50_69_n_12
*359 square_mul_50_69_n_13
*360 square_mul_50_69_n_14
*361 square_mul_50_69_n_15
*362 square_mul_50_69_n_16
*363 square_mul_50_69_n_17
*364 square_mul_50_69_n_18
*365 square_mul_50_69_n_19
*366 square_mul_50_69_n_20
*367 square_mul_50_69_n_21
*368 square_mul_50_69_n_22
*369 square_mul_50_69_n_23
*370 square_mul_50_69_n_24
*371 square_mul_50_69_n_25
*372 square_mul_50_69_n_26
*373 square_mul_50_69_n_27
*374 square_mul_50_69_n_28
*375 square_mul_50_69_n_29
*376 square_mul_50_69_n_30
*377 square_mul_50_69_n_31
*378 square_mul_50_69_n_32
*379 square_mul_50_69_n_33
*380 square_mul_50_69_n_34
*381 square_mul_50_69_n_35
*382 square_mul_50_69_n_36
*383 square_mul_50_69_n_37
*384 square_mul_50_69_n_38
*385 square_mul_50_69_n_39
*386 square_mul_50_69_n_40
*387 square_mul_50_69_n_41
*388 square_mul_50_69_n_42
*389 square_mul_50_69_n_43
*390 square_mul_50_69_n_44
*391 square_mul_50_69_n_45
*392 square_mul_50_69_n_46
*393 square_mul_50_69_n_47
*394 square_mul_50_69_n_48
*395 square_mul_50_69_n_49
*396 square_mul_50_69_n_50
*397 square_mul_50_69_n_51
*398 square_mul_50_69_n_52
*399 square_mul_50_69_n_53
*400 square_mul_50_69_n_54
*401 square_mul_50_69_n_55
*402 square_mul_50_69_n_56
*403 square_mul_50_69_n_57
*404 square_mul_50_69_n_58
*405 square_mul_50_69_n_59
*406 square_mul_50_69_n_60
*407 square_mul_50_69_n_61
*408 square_mul_50_69_n_62
*409 square_mul_50_69_n_63
*410 square_mul_50_69_n_64
*411 square_mul_50_69_n_65
*412 square_mul_50_69_n_66
*413 square_mul_50_69_n_67
*414 square_mul_50_69_n_68
*415 square_mul_50_69_n_69
*416 square_mul_50_69_n_70
*417 square_mul_50_69_n_71
*418 square_mul_50_69_n_72
*419 square_mul_50_69_n_73
*420 square_mul_50_69_n_74
*421 square_mul_50_69_n_75
*422 square_mul_50_69_n_76
*423 square_mul_50_69_n_77
*424 square_mul_50_69_n_78
*425 square_mul_50_69_n_79
*426 square_mul_50_69_n_80
*427 square_mul_50_69_n_81
*428 square_mul_50_69_n_82
*429 square_mul_50_69_n_83
*430 square_mul_50_69_n_84
*431 square_mul_50_69_n_85
*432 square_mul_50_69_n_86
*433 square_mul_50_69_n_87
*434 square_mul_50_69_n_88
*435 square_mul_50_69_n_89
*436 square_mul_50_69_n_90
*437 square_mul_50_69_n_91
*438 square_mul_50_69_n_92
*439 square_mul_50_69_n_93
*440 square_mul_50_69_n_94
*441 square_mul_50_69_n_95
*442 square_mul_50_69_n_96
*443 square_mul_50_69_n_97
*444 square_mul_50_69_n_98
*445 square_mul_50_69_n_99
*446 square_mul_50_69_n_100
*447 square_mul_50_69_n_101
*448 square_mul_50_69_n_102
*449 square_mul_50_69_n_103
*450 square_mul_50_69_n_104
*451 square_mul_50_69_n_105
*452 square_mul_50_69_n_106
*453 square_mul_50_69_n_107
*454 square_mul_50_69_n_108
*455 square_mul_50_69_n_109
*456 square_mul_50_69_n_110
*457 square_mul_50_69_n_111
*458 square_mul_50_69_n_112
*459 square_mul_50_69_n_113
*460 square_mul_50_69_n_114
*461 square_mul_50_69_n_115
*462 square_mul_50_69_n_116
*463 square_mul_50_69_n_117
*464 square_mul_50_69_n_118
*465 square_mul_50_69_n_119
*466 square_mul_50_69_n_120
*467 square_mul_50_69_n_121
*468 square_mul_50_69_n_122
*469 square_mul_50_69_n_123
*470 square_mul_50_69_n_124
*471 square_mul_50_69_n_125
*472 square_mul_50_69_n_126
*473 square_mul_50_69_n_127
*474 square_mul_50_69_n_128
*475 square_mul_50_69_n_130
*476 square_mul_50_69_n_131
*477 square_mul_50_69_n_132
*478 square_mul_50_69_n_133
*479 square_mul_50_69_n_134
*480 square_mul_50_69_n_135
*481 square_mul_50_69_n_136
*482 square_mul_50_69_n_137
*483 square_mul_50_69_n_138
*484 square_mul_50_69_n_139
*485 square_mul_50_69_n_140
*486 square_mul_50_69_n_141
*487 square_mul_50_69_n_142
*488 square_mul_50_69_n_143
*489 square_mul_50_69_n_144
*490 square_mul_50_69_n_145
*491 square_mul_50_69_n_146
*492 square_mul_50_69_n_147
*493 square_mul_50_69_n_148
*494 square_mul_50_69_n_149
*495 square_mul_50_69_n_150
*496 square_mul_50_69_n_152
*497 square_mul_50_69_n_153
*498 square_mul_50_69_n_154
*499 square_mul_50_69_n_155
*500 square_mul_50_69_n_156
*501 square_mul_50_69_n_157
*502 square_mul_50_69_n_158
*503 square_mul_50_69_n_159
*504 square_mul_50_69_n_160
*505 square_mul_50_69_n_161
*506 square_mul_50_69_n_162
*507 square_mul_50_69_n_163
*508 square_mul_50_69_n_164
*509 square_mul_50_69_n_165
*510 square_mul_50_69_n_166
*511 square_mul_50_69_n_167
*512 square_mul_50_69_n_168
*513 square_mul_50_69_n_169
*514 square_mul_50_69_n_170
*515 square_mul_50_69_n_171
*516 square_mul_50_69_n_172
*517 square_mul_50_69_n_175
*518 square_mul_50_69_n_176
*519 square_mul_50_69_n_177
*520 square_mul_50_69_n_178
*521 square_mul_50_69_n_179
*522 square_mul_50_69_n_180
*523 square_mul_50_69_n_181
*524 square_mul_50_69_n_182
*525 square_mul_50_69_n_183
*526 square_mul_50_69_n_184
*527 square_mul_50_69_n_185
*528 square_mul_50_69_n_186
*529 square_mul_50_69_n_187
*530 square_mul_50_69_n_188
*531 square_mul_50_69_n_189
*532 square_mul_50_69_n_190
*533 square_mul_50_69_n_191
*534 square_mul_50_69_n_192
*535 square_mul_50_69_n_193
*536 square_mul_50_69_n_194
*537 square_mul_50_69_n_195
*538 square_mul_50_69_n_196
*539 square_mul_50_69_n_197
*540 square_mul_50_69_n_198
*541 square_mul_50_69_n_199
*542 square_mul_50_69_n_200
*543 square_mul_50_69_n_201
*544 square_mul_50_69_n_202
*545 square_mul_50_69_n_203
*546 square_mul_50_69_n_204
*547 square_mul_50_69_n_205
*548 square_mul_50_69_n_206
*549 square_mul_50_69_n_207
*550 square_mul_50_69_n_208
*551 square_mul_50_69_n_209
*552 square_mul_50_69_n_210
*553 square_mul_50_69_n_211
*554 square_mul_50_69_n_212
*555 square_mul_50_69_n_213
*556 square_mul_50_69_n_214
*557 square_mul_50_69_n_215
*558 square_mul_50_69_n_216
*559 square_mul_50_69_n_217
*560 square_mul_50_69_n_218
*561 square_mul_50_69_n_219
*562 square_mul_50_69_n_220
*563 square_mul_50_69_n_221
*564 square_mul_50_69_n_222
*565 square_mul_50_69_n_223
*566 square_mul_50_69_n_224
*567 square_mul_50_69_n_225
*568 square_mul_50_69_n_227
*569 square_mul_50_69_n_228
*570 square_mul_50_69_n_229
*571 square_mul_50_69_n_230
*572 square_mul_50_69_n_231
*573 square_mul_50_69_n_232
*574 square_mul_50_69_n_233
*575 square_mul_50_69_n_234
*576 square_mul_50_69_n_235
*577 square_mul_50_69_n_236
*578 square_mul_50_69_n_237
*579 square_mul_50_69_n_238
*580 square_mul_50_69_n_239
*581 square_mul_50_69_n_240
*582 square_mul_50_69_n_241
*583 square_mul_50_69_n_242
*584 square_mul_50_69_n_244
*585 square_mul_50_69_n_245
*586 square_mul_50_69_n_246
*587 square_mul_50_69_n_247
*588 square_mul_50_69_n_248
*589 square_mul_50_69_n_249
*590 square_mul_50_69_n_251
*591 square_mul_50_69_n_252
*592 square_mul_50_69_n_253
*593 square_mul_50_69_n_254
*594 square_mul_50_69_n_255
*595 square_mul_50_69_n_256
*596 square_mul_50_69_n_258
*597 square_mul_50_69_n_259
*598 square_mul_50_69_n_260
*599 square_mul_50_69_n_261
*600 square_mul_50_69_n_262
*601 square_mul_50_69_n_263
*602 square_mul_50_69_n_264
*603 square_mul_50_69_n_265
*604 square_mul_50_69_n_266
*605 square_mul_50_69_n_267
*606 square_mul_50_69_n_268
*607 square_mul_50_69_n_269
*608 square_mul_50_69_n_270
*609 square_mul_50_69_n_271
*610 square_mul_50_69_n_272
*611 square_mul_50_69_n_273
*612 square_mul_50_69_n_274
*613 square_mul_50_69_n_275
*614 square_mul_50_69_n_276
*615 square_mul_50_69_n_277
*616 square_mul_50_69_n_278
*617 square_mul_50_69_n_279
*618 square_mul_50_69_n_280
*619 square_mul_50_69_n_281
*620 square_mul_50_69_n_282
*621 square_mul_50_69_n_283
*622 square_mul_50_69_n_284
*623 square_mul_50_69_n_285
*624 square_mul_50_69_n_286
*625 square_mul_50_69_n_287
*626 square_mul_50_69_n_288
*627 square_mul_50_69_n_290
*628 square_mul_50_69_n_291
*629 square_mul_50_69_n_292
*630 square_mul_50_69_n_293
*631 square_mul_50_69_n_294
*632 square_mul_50_69_n_295
*633 square_mul_50_69_n_296
*634 square_mul_50_69_n_297
*635 square_mul_50_69_n_298
*636 square_mul_50_69_n_299
*637 square_mul_50_69_n_300
*638 square_mul_50_69_n_301
*639 square_mul_50_69_n_302
*640 square_mul_50_69_n_303
*641 square_mul_50_69_n_304
*642 square_mul_50_69_n_305
*643 square_mul_50_69_n_306
*644 square_mul_50_69_n_307
*645 square_mul_50_69_n_308
*646 square_mul_50_69_n_309
*647 square_mul_50_69_n_310
*648 square_mul_50_69_n_311
*649 square_mul_50_69_n_312
*650 square_mul_50_69_n_313
*651 square_mul_50_69_n_314
*652 square_mul_50_69_n_316
*653 square_mul_50_69_n_317
*654 square_mul_50_69_n_318
*655 square_mul_50_69_n_319
*656 square_mul_50_69_n_320
*657 square_mul_50_69_n_321
*658 square_mul_50_69_n_322
*659 square_mul_50_69_n_324
*660 square_mul_50_69_n_325
*661 square_mul_50_69_n_326
*662 square_mul_50_69_n_327
*663 square_mul_50_69_n_328
*664 square_mul_50_69_n_329
*665 square_mul_50_69_n_330
*666 square_mul_50_69_n_331
*667 square_mul_50_69_n_332
*668 square_mul_50_69_n_333
*669 square_mul_50_69_n_334
*670 square_mul_50_69_n_336
*671 square_mul_50_69_n_338
*672 square_mul_50_69_n_340
*673 square_mul_50_69_n_342
*674 square_mul_50_69_n_344
*675 square_mul_50_69_n_346
*676 square_mul_50_69_n_348
*677 square_mul_50_69_n_350
*678 square_mul_50_69_n_352
*679 square_mul_50_69_n_354
*680 square_mul_50_69_n_356
*681 square_mul_50_69_n_358
*682 square_mul_50_69_n_360
*683 square_mul_50_69_n_362
*684 square_mul_50_69_n_364
*685 square_mul_50_69_n_366
*686 square_mul_50_69_n_368
*687 square_mul_50_69_n_371
*688 square_mul_50_69_n_372
*689 square_mul_50_69_n_373
*690 square_mul_50_69_n_375
*691 square_mul_50_69_n_376
*692 square_mul_50_69_n_378
*693 square_mul_50_69_n_379
*694 square_mul_51_69_n_1
*695 square_mul_51_69_n_2
*696 square_mul_51_69_n_3
*697 square_mul_51_69_n_4
*698 square_mul_51_69_n_5
*699 square_mul_51_69_n_6
*700 square_mul_51_69_n_7
*701 square_mul_51_69_n_8
*702 square_mul_51_69_n_9
*703 square_mul_51_69_n_10
*704 square_mul_51_69_n_11
*705 square_mul_51_69_n_12
*706 square_mul_51_69_n_13
*707 square_mul_51_69_n_14
*708 square_mul_51_69_n_15
*709 square_mul_51_69_n_16
*710 square_mul_51_69_n_17
*711 square_mul_51_69_n_18
*712 square_mul_51_69_n_19
*713 square_mul_51_69_n_20
*714 square_mul_51_69_n_21
*715 square_mul_51_69_n_22
*716 square_mul_51_69_n_23
*717 square_mul_51_69_n_24
*718 square_mul_51_69_n_25
*719 square_mul_51_69_n_26
*720 square_mul_51_69_n_27
*721 square_mul_51_69_n_28
*722 square_mul_51_69_n_29
*723 square_mul_51_69_n_30
*724 square_mul_51_69_n_31
*725 square_mul_51_69_n_32
*726 square_mul_51_69_n_33
*727 square_mul_51_69_n_34
*728 square_mul_51_69_n_35
*729 square_mul_51_69_n_36
*730 square_mul_51_69_n_37
*731 square_mul_51_69_n_38
*732 square_mul_51_69_n_39
*733 square_mul_51_69_n_40
*734 square_mul_51_69_n_41
*735 square_mul_51_69_n_42
*736 square_mul_51_69_n_43
*737 square_mul_51_69_n_44
*738 square_mul_51_69_n_45
*739 square_mul_51_69_n_46
*740 square_mul_51_69_n_47
*741 square_mul_51_69_n_48
*742 square_mul_51_69_n_49
*743 square_mul_51_69_n_50
*744 square_mul_51_69_n_51
*745 square_mul_51_69_n_52
*746 square_mul_51_69_n_53
*747 square_mul_51_69_n_54
*748 square_mul_51_69_n_55
*749 square_mul_51_69_n_56
*750 square_mul_51_69_n_57
*751 square_mul_51_69_n_58
*752 square_mul_51_69_n_59
*753 square_mul_51_69_n_60
*754 square_mul_51_69_n_61
*755 square_mul_51_69_n_62
*756 square_mul_51_69_n_63
*757 square_mul_51_69_n_64
*758 square_mul_51_69_n_65
*759 square_mul_51_69_n_66
*760 square_mul_51_69_n_67
*761 square_mul_51_69_n_68
*762 square_mul_51_69_n_69
*763 square_mul_51_69_n_70
*764 square_mul_51_69_n_71
*765 square_mul_51_69_n_72
*766 square_mul_51_69_n_73
*767 square_mul_51_69_n_74
*768 square_mul_51_69_n_75
*769 square_mul_51_69_n_76
*770 square_mul_51_69_n_77
*771 square_mul_51_69_n_78
*772 square_mul_51_69_n_79
*773 square_mul_51_69_n_80
*774 square_mul_51_69_n_81
*775 square_mul_51_69_n_82
*776 square_mul_51_69_n_83
*777 square_mul_51_69_n_84
*778 square_mul_51_69_n_85
*779 square_mul_51_69_n_86
*780 square_mul_51_69_n_87
*781 square_mul_51_69_n_88
*782 square_mul_51_69_n_89
*783 square_mul_51_69_n_90
*784 square_mul_51_69_n_91
*785 square_mul_51_69_n_92
*786 square_mul_51_69_n_93
*787 square_mul_51_69_n_94
*788 square_mul_51_69_n_95
*789 square_mul_51_69_n_96
*790 square_mul_51_69_n_97
*791 square_mul_51_69_n_98
*792 square_mul_51_69_n_99
*793 square_mul_51_69_n_100
*794 square_mul_51_69_n_101
*795 square_mul_51_69_n_102
*796 square_mul_51_69_n_103
*797 square_mul_51_69_n_104
*798 square_mul_51_69_n_105
*799 square_mul_51_69_n_106
*800 square_mul_51_69_n_107
*801 square_mul_51_69_n_108
*802 square_mul_51_69_n_109
*803 square_mul_51_69_n_110
*804 square_mul_51_69_n_111
*805 square_mul_51_69_n_112
*806 square_mul_51_69_n_113
*807 square_mul_51_69_n_114
*808 square_mul_51_69_n_115
*809 square_mul_51_69_n_116
*810 square_mul_51_69_n_117
*811 square_mul_51_69_n_118
*812 square_mul_51_69_n_119
*813 square_mul_51_69_n_120
*814 square_mul_51_69_n_121
*815 square_mul_51_69_n_122
*816 square_mul_51_69_n_123
*817 square_mul_51_69_n_124
*818 square_mul_51_69_n_125
*819 square_mul_51_69_n_126
*820 square_mul_51_69_n_127
*821 square_mul_51_69_n_128
*822 square_mul_51_69_n_130
*823 square_mul_51_69_n_131
*824 square_mul_51_69_n_132
*825 square_mul_51_69_n_133
*826 square_mul_51_69_n_134
*827 square_mul_51_69_n_135
*828 square_mul_51_69_n_136
*829 square_mul_51_69_n_137
*830 square_mul_51_69_n_138
*831 square_mul_51_69_n_139
*832 square_mul_51_69_n_140
*833 square_mul_51_69_n_141
*834 square_mul_51_69_n_142
*835 square_mul_51_69_n_143
*836 square_mul_51_69_n_144
*837 square_mul_51_69_n_145
*838 square_mul_51_69_n_146
*839 square_mul_51_69_n_147
*840 square_mul_51_69_n_148
*841 square_mul_51_69_n_149
*842 square_mul_51_69_n_150
*843 square_mul_51_69_n_152
*844 square_mul_51_69_n_153
*845 square_mul_51_69_n_154
*846 square_mul_51_69_n_155
*847 square_mul_51_69_n_156
*848 square_mul_51_69_n_157
*849 square_mul_51_69_n_158
*850 square_mul_51_69_n_159
*851 square_mul_51_69_n_160
*852 square_mul_51_69_n_161
*853 square_mul_51_69_n_162
*854 square_mul_51_69_n_163
*855 square_mul_51_69_n_164
*856 square_mul_51_69_n_165
*857 square_mul_51_69_n_166
*858 square_mul_51_69_n_167
*859 square_mul_51_69_n_168
*860 square_mul_51_69_n_169
*861 square_mul_51_69_n_170
*862 square_mul_51_69_n_171
*863 square_mul_51_69_n_172
*864 square_mul_51_69_n_175
*865 square_mul_51_69_n_176
*866 square_mul_51_69_n_177
*867 square_mul_51_69_n_178
*868 square_mul_51_69_n_179
*869 square_mul_51_69_n_180
*870 square_mul_51_69_n_181
*871 square_mul_51_69_n_182
*872 square_mul_51_69_n_183
*873 square_mul_51_69_n_184
*874 square_mul_51_69_n_185
*875 square_mul_51_69_n_186
*876 square_mul_51_69_n_187
*877 square_mul_51_69_n_188
*878 square_mul_51_69_n_189
*879 square_mul_51_69_n_190
*880 square_mul_51_69_n_191
*881 square_mul_51_69_n_192
*882 square_mul_51_69_n_193
*883 square_mul_51_69_n_194
*884 square_mul_51_69_n_195
*885 square_mul_51_69_n_196
*886 square_mul_51_69_n_197
*887 square_mul_51_69_n_198
*888 square_mul_51_69_n_199
*889 square_mul_51_69_n_200
*890 square_mul_51_69_n_201
*891 square_mul_51_69_n_202
*892 square_mul_51_69_n_203
*893 square_mul_51_69_n_204
*894 square_mul_51_69_n_205
*895 square_mul_51_69_n_206
*896 square_mul_51_69_n_207
*897 square_mul_51_69_n_208
*898 square_mul_51_69_n_209
*899 square_mul_51_69_n_210
*900 square_mul_51_69_n_211
*901 square_mul_51_69_n_212
*902 square_mul_51_69_n_213
*903 square_mul_51_69_n_214
*904 square_mul_51_69_n_215
*905 square_mul_51_69_n_216
*906 square_mul_51_69_n_217
*907 square_mul_51_69_n_218
*908 square_mul_51_69_n_219
*909 square_mul_51_69_n_220
*910 square_mul_51_69_n_221
*911 square_mul_51_69_n_222
*912 square_mul_51_69_n_223
*913 square_mul_51_69_n_224
*914 square_mul_51_69_n_225
*915 square_mul_51_69_n_227
*916 square_mul_51_69_n_228
*917 square_mul_51_69_n_229
*918 square_mul_51_69_n_230
*919 square_mul_51_69_n_231
*920 square_mul_51_69_n_232
*921 square_mul_51_69_n_233
*922 square_mul_51_69_n_234
*923 square_mul_51_69_n_235
*924 square_mul_51_69_n_236
*925 square_mul_51_69_n_237
*926 square_mul_51_69_n_238
*927 square_mul_51_69_n_239
*928 square_mul_51_69_n_240
*929 square_mul_51_69_n_241
*930 square_mul_51_69_n_242
*931 square_mul_51_69_n_244
*932 square_mul_51_69_n_245
*933 square_mul_51_69_n_246
*934 square_mul_51_69_n_247
*935 square_mul_51_69_n_248
*936 square_mul_51_69_n_249
*937 square_mul_51_69_n_251
*938 square_mul_51_69_n_252
*939 square_mul_51_69_n_253
*940 square_mul_51_69_n_254
*941 square_mul_51_69_n_255
*942 square_mul_51_69_n_256
*943 square_mul_51_69_n_258
*944 square_mul_51_69_n_259
*945 square_mul_51_69_n_260
*946 square_mul_51_69_n_261
*947 square_mul_51_69_n_262
*948 square_mul_51_69_n_263
*949 square_mul_51_69_n_264
*950 square_mul_51_69_n_265
*951 square_mul_51_69_n_266
*952 square_mul_51_69_n_267
*953 square_mul_51_69_n_268
*954 square_mul_51_69_n_269
*955 square_mul_51_69_n_270
*956 square_mul_51_69_n_271
*957 square_mul_51_69_n_272
*958 square_mul_51_69_n_273
*959 square_mul_51_69_n_274
*960 square_mul_51_69_n_275
*961 square_mul_51_69_n_276
*962 square_mul_51_69_n_277
*963 square_mul_51_69_n_278
*964 square_mul_51_69_n_279
*965 square_mul_51_69_n_280
*966 square_mul_51_69_n_281
*967 square_mul_51_69_n_282
*968 square_mul_51_69_n_283
*969 square_mul_51_69_n_284
*970 square_mul_51_69_n_285
*971 square_mul_51_69_n_286
*972 square_mul_51_69_n_287
*973 square_mul_51_69_n_288
*974 square_mul_51_69_n_290
*975 square_mul_51_69_n_291
*976 square_mul_51_69_n_292
*977 square_mul_51_69_n_293
*978 square_mul_51_69_n_294
*979 square_mul_51_69_n_295
*980 square_mul_51_69_n_296
*981 square_mul_51_69_n_297
*982 square_mul_51_69_n_298
*983 square_mul_51_69_n_299
*984 square_mul_51_69_n_300
*985 square_mul_51_69_n_301
*986 square_mul_51_69_n_302
*987 square_mul_51_69_n_303
*988 square_mul_51_69_n_304
*989 square_mul_51_69_n_305
*990 square_mul_51_69_n_306
*991 square_mul_51_69_n_307
*992 square_mul_51_69_n_308
*993 square_mul_51_69_n_309
*994 square_mul_51_69_n_310
*995 square_mul_51_69_n_311
*996 square_mul_51_69_n_312
*997 square_mul_51_69_n_313
*998 square_mul_51_69_n_314
*999 square_mul_51_69_n_316
*1000 square_mul_51_69_n_317
*1001 square_mul_51_69_n_318
*1002 square_mul_51_69_n_319
*1003 square_mul_51_69_n_320
*1004 square_mul_51_69_n_321
*1005 square_mul_51_69_n_322
*1006 square_mul_51_69_n_324
*1007 square_mul_51_69_n_325
*1008 square_mul_51_69_n_326
*1009 square_mul_51_69_n_327
*1010 square_mul_51_69_n_328
*1011 square_mul_51_69_n_329
*1012 square_mul_51_69_n_330
*1013 square_mul_51_69_n_331
*1014 square_mul_51_69_n_332
*1015 square_mul_51_69_n_333
*1016 square_mul_51_69_n_334
*1017 square_mul_51_69_n_336
*1018 square_mul_51_69_n_338
*1019 square_mul_51_69_n_340
*1020 square_mul_51_69_n_342
*1021 square_mul_51_69_n_344
*1022 square_mul_51_69_n_346
*1023 square_mul_51_69_n_348
*1024 square_mul_51_69_n_350
*1025 square_mul_51_69_n_352
*1026 square_mul_51_69_n_354
*1027 square_mul_51_69_n_356
*1028 square_mul_51_69_n_358
*1029 square_mul_51_69_n_360
*1030 square_mul_51_69_n_362
*1031 square_mul_51_69_n_364
*1032 square_mul_51_69_n_366
*1033 square_mul_51_69_n_368
*1034 square_mul_51_69_n_371
*1035 square_mul_51_69_n_372
*1036 square_mul_51_69_n_373
*1037 square_mul_51_69_n_375
*1038 square_mul_51_69_n_376
*1039 square_mul_51_69_n_378
*1040 square_mul_51_69_n_379
*1041 n_398
*1042 n_399
*1043 iDUT/n_0
*1044 iDUT/n_1
*1045 iDUT/n_2
*1046 iDUT/n_3
*1047 iDUT/n_4
*1048 iDUT/n_5
*1049 iDUT/n_6
*1050 iDUT/n_7
*1051 iDUT/n_8
*1052 iDUT/n_9
*1053 iDUT/n_10
*1054 iDUT/n_11
*1055 iDUT/n_12
*1056 iDUT/n_13
*1057 iDUT/n_14
*1058 iDUT/n_15
*1059 iDUT/n_16
*1060 iDUT/n_17
*1061 iDUT/n_18
*1062 iDUT/n_19
*1063 iDUT/srl_12_20_n_0
*1064 iDUT/srl_12_20_n_1
*1065 iDUT/srl_12_20_n_2
*1066 iDUT/srl_12_20_n_3
*1067 iDUT/srl_12_20_n_4
*1068 iDUT/srl_12_20_n_5
*1069 iDUT/srl_12_20_n_6
*1070 iDUT/srl_12_20_n_7
*1071 iDUT/srl_12_20_n_8
*1072 iDUT/srl_12_20_n_9
*1073 iDUT/srl_12_20_n_10
*1074 iDUT/srl_12_20_n_11
*1075 iDUT/srl_12_20_n_12
*1076 iDUT/srl_12_20_n_13
*1077 iDUT/srl_12_20_n_14
*1078 iDUT/srl_12_20_n_15
*1079 iDUT/srl_12_20_n_16
*1080 iDUT/srl_12_20_n_17
*1081 iDUT/srl_12_20_n_18
*1082 iDUT/srl_12_20_n_19
*1083 iDUT/srl_12_20_n_20
*1084 iDUT/srl_12_20_n_21
*1085 iDUT/srl_12_20_n_22
*1086 iDUT/srl_12_20_n_23
*1087 iDUT/srl_12_20_n_25
*1088 iDUT/srl_12_20_n_26
*1089 iDUT/srl_12_20_n_27
*1090 iDUT/srl_12_20_n_28
*1091 iDUT/srl_12_20_n_29
*1092 iDUT/srl_12_20_n_30
*1093 iDUT/srl_12_20_n_31
*1094 iDUT/srl_12_20_n_32
*1095 iDUT/srl_12_20_n_33
*1096 iDUT/srl_12_20_n_34
*1097 iDUT/srl_12_20_n_35
*1098 iDUT/srl_12_20_n_36
*1099 iDUT/srl_12_20_n_37
*1100 iDUT/srl_12_20_n_38
*1101 iDUT/srl_12_20_n_39
*1102 iDUT/srl_12_20_n_40
*1103 iDUT/srl_12_20_n_41
*1104 iDUT/srl_12_20_n_42
*1105 iDUT/srl_12_20_n_43
*1106 iDUT/srl_12_20_n_45
*1107 iDUT/srl_12_20_n_46
*1108 iDUT/srl_12_20_n_48
*1109 iDUT/srl_12_20_n_49
*1110 iDUT/srl_12_20_n_50
*1111 iDUT/srl_12_20_n_51
*1112 iDUT/srl_12_20_n_52
*1113 iDUT/srl_12_20_n_53
*1114 iDUT/g282__8780
*1115 iDUT/g283__4296
*1116 iDUT/g284__3772
*1117 iDUT/g285__1474
*1118 iDUT/g286__4547
*1119 iDUT/g287__9682
*1120 iDUT/g288__2683
*1121 iDUT/g289__1309
*1122 iDUT/g290__6877
*1123 iDUT/g291__2900
*1124 iDUT/g292__2391
*1125 iDUT/g293__7675
*1126 iDUT/g294__7118
*1127 iDUT/g295__8757
*1128 iDUT/g296__1786
*1129 iDUT/g297__5953
*1130 iDUT/g298__5703
*1131 iDUT/g299__7114
*1132 iDUT/g300__5266
*1133 iDUT/g301__2250
*1134 iDUT/srl_12_20_g897__6083
*1135 iDUT/srl_12_20_g898__2703
*1136 iDUT/srl_12_20_g899__5795
*1137 iDUT/srl_12_20_g900__7344
*1138 iDUT/srl_12_20_g901__1840
*1139 iDUT/srl_12_20_g902__5019
*1140 iDUT/srl_12_20_g903__1857
*1141 iDUT/srl_12_20_g904__9906