*SPEF "IEEE 1481-1998"
*DESIGN "mult_16b_flopped"
*DATE "Mon Apr 21 05:56:35 pm 2025"
*VENDOR "Cadence Design Systems"
*PROGRAM "Genus(TM) Synthesis Solution"
*VERSION "18.14-s037_1"
*DESIGN_FLOW "PIN_CAP NONE" "NAME_SCOPE LOCAL"
*DIVIDER /
*DELIMITER :
*BUS_DELIMITER []
*T_UNIT 1 NS
*C_UNIT 1 PF
*R_UNIT 1 OHM
*L_UNIT 1 HENRY
// Interconnect mode: global

*NAME_MAP

*1 a[15]
*2 a[14]
*3 a[13]
*4 a[12]
*5 a[11]
*6 a[10]
*7 a[9]
*8 a[8]
*9 a[7]
*10 a[6]
*11 a[5]
*12 a[4]
*13 a[3]
*14 a[2]
*15 a[1]
*16 a[0]
*17 b[15]
*18 b[14]
*19 b[13]
*20 b[12]
*21 b[11]
*22 b[10]
*23 b[9]
*24 b[8]
*25 b[7]
*26 b[6]
*27 b[5]
*28 b[4]
*29 b[3]
*30 b[2]
*31 b[1]
*32 b[0]
*33 clk
*34 product_flopped[31]
*35 product_flopped[30]
*36 product_flopped[29]
*37 product_flopped[28]
*38 product_flopped[27]
*39 product_flopped[26]
*40 product_flopped[25]
*41 product_flopped[24]
*42 product_flopped[23]
*43 product_flopped[22]
*44 product_flopped[21]
*45 product_flopped[20]
*46 product_flopped[19]
*47 product_flopped[18]
*48 product_flopped[17]
*49 product_flopped[16]
*50 product_flopped[15]
*51 product_flopped[14]
*52 product_flopped[13]
*53 product_flopped[12]
*54 product_flopped[11]
*55 product_flopped[10]
*56 product_flopped[9]
*57 product_flopped[8]
*58 product_flopped[7]
*59 product_flopped[6]
*60 product_flopped[5]
*61 product_flopped[4]
*62 product_flopped[3]
*63 product_flopped[2]
*64 product_flopped[1]
*65 product_flopped[0]
*66 a[0]
*67 a[1]
*68 a[2]
*69 a[3]
*70 a[4]
*71 a[5]
*72 a[6]
*73 a[7]
*74 a[8]
*75 a[9]
*76 a[10]
*77 a[11]
*78 a[12]
*79 a[13]
*80 a[14]
*81 a[15]
*82 a_flopped_0
*83 a_flopped_1
*84 a_flopped_2
*85 a_flopped_3
*86 a_flopped_4
*87 a_flopped_5
*88 a_flopped_6
*89 a_flopped_7
*90 a_flopped_8
*91 a_flopped_9
*92 a_flopped_10
*93 a_flopped_11
*94 a_flopped_12
*95 a_flopped_13
*96 a_flopped_14
*97 a_flopped_15
*98 b[0]
*99 b[1]
*100 b[2]
*101 b[3]
*102 b[4]
*103 b[5]
*104 b[6]
*105 b[7]
*106 b[8]
*107 b[9]
*108 b[10]
*109 b[11]
*110 b[12]
*111 b[13]
*112 b[14]
*113 b[15]
*114 b_flopped_0
*115 b_flopped_1
*116 b_flopped_2
*117 b_flopped_3
*118 b_flopped_4
*119 b_flopped_5
*120 b_flopped_6
*121 b_flopped_7
*122 b_flopped_8
*123 b_flopped_9
*124 b_flopped_10
*125 b_flopped_11
*126 b_flopped_12
*127 b_flopped_13
*128 b_flopped_14
*129 b_flopped_15
*130 product_flopped[0]
*131 product_flopped[1]
*132 product_flopped[2]
*133 product_flopped[3]
*134 product_flopped[4]
*135 product_flopped[5]
*136 product_flopped[6]
*137 product_flopped[7]
*138 product_flopped[8]
*139 product_flopped[9]
*140 product_flopped[10]
*141 product_flopped[11]
*142 product_flopped[12]
*143 product_flopped[13]
*144 product_flopped[14]
*145 product_flopped[15]
*146 result_0
*147 result_1
*148 result_2
*149 result_3
*150 result_4
*151 result_5
*152 result_6
*153 result_7
*154 result_8
*155 result_9
*156 result_10
*157 result_11
*158 result_12
*159 result_13
*160 result_14
*161 result_15
*162 clk
*163 iDUT/mul_12_20_n_0
*164 iDUT/mul_12_20_n_1
*165 iDUT/mul_12_20_n_2
*166 iDUT/mul_12_20_n_3
*167 iDUT/mul_12_20_n_4
*168 iDUT/mul_12_20_n_5
*169 iDUT/mul_12_20_n_6
*170 iDUT/mul_12_20_n_7
*171 iDUT/mul_12_20_n_8
*172 iDUT/mul_12_20_n_9
*173 iDUT/mul_12_20_n_10
*174 iDUT/mul_12_20_n_11
*175 iDUT/mul_12_20_n_13
*176 iDUT/mul_12_20_n_14
*177 iDUT/mul_12_20_n_15
*178 iDUT/mul_12_20_n_16
*179 iDUT/mul_12_20_n_17
*180 iDUT/mul_12_20_n_18
*181 iDUT/mul_12_20_n_19
*182 iDUT/mul_12_20_n_20
*183 iDUT/mul_12_20_n_21
*184 iDUT/mul_12_20_n_22
*185 iDUT/mul_12_20_n_23
*186 iDUT/mul_12_20_n_24
*187 iDUT/mul_12_20_n_25
*188 iDUT/mul_12_20_n_26
*189 iDUT/mul_12_20_n_27
*190 iDUT/mul_12_20_n_28
*191 iDUT/mul_12_20_n_29
*192 iDUT/mul_12_20_n_30
*193 iDUT/mul_12_20_n_31
*194 iDUT/mul_12_20_n_32
*195 iDUT/mul_12_20_n_33
*196 iDUT/mul_12_20_n_34
*197 iDUT/mul_12_20_n_35
*198 iDUT/mul_12_20_n_36
*199 iDUT/mul_12_20_n_37
*200 iDUT/mul_12_20_n_38
*201 iDUT/mul_12_20_n_39
*202 iDUT/mul_12_20_n_40
*203 iDUT/mul_12_20_n_41
*204 iDUT/mul_12_20_n_42
*205 iDUT/mul_12_20_n_43
*206 iDUT/mul_12_20_n_44
*207 iDUT/mul_12_20_n_45
*208 iDUT/mul_12_20_n_46
*209 iDUT/mul_12_20_n_47
*210 iDUT/mul_12_20_n_48
*211 iDUT/mul_12_20_n_49
*212 iDUT/mul_12_20_n_50
*213 iDUT/mul_12_20_n_51
*214 iDUT/mul_12_20_n_52
*215 iDUT/mul_12_20_n_53
*216 iDUT/mul_12_20_n_54
*217 iDUT/mul_12_20_n_55
*218 iDUT/mul_12_20_n_56
*219 iDUT/mul_12_20_n_57
*220 iDUT/mul_12_20_n_58
*221 iDUT/mul_12_20_n_59
*222 iDUT/mul_12_20_n_60
*223 iDUT/mul_12_20_n_61
*224 iDUT/mul_12_20_n_62
*225 iDUT/mul_12_20_n_63
*226 iDUT/mul_12_20_n_64
*227 iDUT/mul_12_20_n_65
*228 iDUT/mul_12_20_n_66
*229 iDUT/mul_12_20_n_67
*230 iDUT/mul_12_20_n_68
*231 iDUT/mul_12_20_n_69
*232 iDUT/mul_12_20_n_70
*233 iDUT/mul_12_20_n_71
*234 iDUT/mul_12_20_n_72
*235 iDUT/mul_12_20_n_73
*236 iDUT/mul_12_20_n_74
*237 iDUT/mul_12_20_n_76
*238 iDUT/mul_12_20_n_77
*239 iDUT/mul_12_20_n_78
*240 iDUT/mul_12_20_n_79
*241 iDUT/mul_12_20_n_80
*242 iDUT/mul_12_20_n_81
*243 iDUT/mul_12_20_n_82
*244 iDUT/mul_12_20_n_83
*245 iDUT/mul_12_20_n_84
*246 iDUT/mul_12_20_n_85
*247 iDUT/mul_12_20_n_86
*248 iDUT/mul_12_20_n_87
*249 iDUT/mul_12_20_n_88
*250 iDUT/mul_12_20_n_89
*251 iDUT/mul_12_20_n_90
*252 iDUT/mul_12_20_n_91
*253 iDUT/mul_12_20_n_92
*254 iDUT/mul_12_20_n_93
*255 iDUT/mul_12_20_n_94
*256 iDUT/mul_12_20_n_95
*257 iDUT/mul_12_20_n_96
*258 iDUT/mul_12_20_n_97
*259 iDUT/mul_12_20_n_98
*260 iDUT/mul_12_20_n_99
*261 iDUT/mul_12_20_n_100
*262 iDUT/mul_12_20_n_101
*263 iDUT/mul_12_20_n_102
*264 iDUT/mul_12_20_n_103
*265 iDUT/mul_12_20_n_104
*266 iDUT/mul_12_20_n_105
*267 iDUT/mul_12_20_n_106
*268 iDUT/mul_12_20_n_107
*269 iDUT/mul_12_20_n_108
*270 iDUT/mul_12_20_n_109
*271 iDUT/mul_12_20_n_110
*272 iDUT/mul_12_20_n_111
*273 iDUT/mul_12_20_n_112
*274 iDUT/mul_12_20_n_113
*275 iDUT/mul_12_20_n_114
*276 iDUT/mul_12_20_n_115
*277 iDUT/mul_12_20_n_116
*278 iDUT/mul_12_20_n_117
*279 iDUT/mul_12_20_n_118
*280 iDUT/mul_12_20_n_119
*281 iDUT/mul_12_20_n_120
*282 iDUT/mul_12_20_n_121
*283 iDUT/mul_12_20_n_122
*284 iDUT/mul_12_20_n_123
*285 iDUT/mul_12_20_n_124
*286 iDUT/mul_12_20_n_125
*287 iDUT/mul_12_20_n_126
*288 iDUT/mul_12_20_n_127
*289 iDUT/mul_12_20_n_128
*290 iDUT/mul_12_20_n_129
*291 iDUT/mul_12_20_n_130
*292 iDUT/mul_12_20_n_131
*293 iDUT/mul_12_20_n_132
*294 iDUT/mul_12_20_n_133
*295 iDUT/mul_12_20_n_134
*296 iDUT/mul_12_20_n_135
*297 iDUT/mul_12_20_n_136
*298 iDUT/mul_12_20_n_137
*299 iDUT/mul_12_20_n_138
*300 iDUT/mul_12_20_n_139
*301 iDUT/mul_12_20_n_140
*302 iDUT/mul_12_20_n_141
*303 iDUT/mul_12_20_n_142
*304 iDUT/mul_12_20_n_143
*305 iDUT/mul_12_20_n_144
*306 iDUT/mul_12_20_n_145
*307 iDUT/mul_12_20_n_146
*308 iDUT/mul_12_20_n_147
*309 iDUT/mul_12_20_n_148
*310 iDUT/mul_12_20_n_149
*311 iDUT/mul_12_20_n_150
*312 iDUT/mul_12_20_n_151
*313 iDUT/mul_12_20_n_152
*314 iDUT/mul_12_20_n_153
*315 iDUT/mul_12_20_n_154
*316 iDUT/mul_12_20_n_155
*317 iDUT/mul_12_20_n_156
*318 iDUT/mul_12_20_n_157
*319 iDUT/mul_12_20_n_158
*320 iDUT/mul_12_20_n_159
*321 iDUT/mul_12_20_n_160
*322 iDUT/mul_12_20_n_161
*323 iDUT/mul_12_20_n_162
*324 iDUT/mul_12_20_n_163
*325 iDUT/mul_12_20_n_164
*326 iDUT/mul_12_20_n_165
*327 iDUT/mul_12_20_n_166
*328 iDUT/mul_12_20_n_167
*329 iDUT/mul_12_20_n_168
*330 iDUT/mul_12_20_n_169
*331 iDUT/mul_12_20_n_170
*332 iDUT/mul_12_20_n_171
*333 iDUT/mul_12_20_n_172
*334 iDUT/mul_12_20_n_173
*335 iDUT/mul_12_20_n_174
*336 iDUT/mul_12_20_n_175
*337 iDUT/mul_12_20_n_176
*338 iDUT/mul_12_20_n_177
*339 iDUT/mul_12_20_n_178
*340 iDUT/mul_12_20_n_179
*341 iDUT/mul_12_20_n_180
*342 iDUT/mul_12_20_n_181
*343 iDUT/mul_12_20_n_182
*344 iDUT/mul_12_20_n_183
*345 iDUT/mul_12_20_n_184
*346 iDUT/mul_12_20_n_185
*347 iDUT/mul_12_20_n_186
*348 iDUT/mul_12_20_n_187
*349 iDUT/mul_12_20_n_188
*350 iDUT/mul_12_20_n_189
*351 iDUT/mul_12_20_n_190
*352 iDUT/mul_12_20_n_191
*353 iDUT/mul_12_20_n_192
*354 iDUT/mul_12_20_n_193
*355 iDUT/mul_12_20_n_194
*356 iDUT/mul_12_20_n_195
*357 iDUT/mul_12_20_n_196
*358 iDUT/mul_12_20_n_197
*359 iDUT/mul_12_20_n_198
*360 iDUT/mul_12_20_n_199
*361 iDUT/mul_12_20_n_200
*362 iDUT/mul_12_20_n_202
*363 iDUT/mul_12_20_n_203
*364 iDUT/mul_12_20_n_204
*365 iDUT/mul_12_20_n_205
*366 iDUT/mul_12_20_n_206
*367 iDUT/mul_12_20_n_207
*368 iDUT/mul_12_20_n_208
*369 iDUT/mul_12_20_n_209
*370 iDUT/mul_12_20_n_210
*371 iDUT/mul_12_20_n_211
*372 iDUT/mul_12_20_n_212
*373 iDUT/mul_12_20_n_213
*374 iDUT/mul_12_20_n_214
*375 iDUT/mul_12_20_n_215
*376 iDUT/mul_12_20_n_216
*377 iDUT/mul_12_20_n_217
*378 iDUT/mul_12_20_n_218
*379 iDUT/mul_12_20_n_220
*380 iDUT/mul_12_20_n_221
*381 iDUT/mul_12_20_n_222
*382 iDUT/mul_12_20_n_223
*383 iDUT/mul_12_20_n_224
*384 iDUT/mul_12_20_n_225
*385 iDUT/mul_12_20_n_226
*386 iDUT/mul_12_20_n_227
*387 iDUT/mul_12_20_n_228
*388 iDUT/mul_12_20_n_229
*389 iDUT/mul_12_20_n_230
*390 iDUT/mul_12_20_n_231
*391 iDUT/mul_12_20_n_232
*392 iDUT/mul_12_20_n_233
*393 iDUT/mul_12_20_n_234
*394 iDUT/mul_12_20_n_235
*395 iDUT/mul_12_20_n_236
*396 iDUT/mul_12_20_n_237
*397 iDUT/mul_12_20_n_238
*398 iDUT/mul_12_20_n_239
*399 iDUT/mul_12_20_n_240
*400 iDUT/mul_12_20_n_241
*401 iDUT/mul_12_20_n_242
*402 iDUT/mul_12_20_n_243
*403 iDUT/mul_12_20_n_244
*404 iDUT/mul_12_20_n_245
*405 iDUT/mul_12_20_n_246
*406 iDUT/mul_12_20_n_247
*407 iDUT/mul_12_20_n_248
*408 iDUT/mul_12_20_n_249
*409 iDUT/mul_12_20_n_250
*410 iDUT/mul_12_20_n_251
*411 iDUT/mul_12_20_n_253
*412 iDUT/mul_12_20_n_254
*413 iDUT/mul_12_20_n_255
*414 iDUT/mul_12_20_n_256
*415 iDUT/mul_12_20_n_257
*416 iDUT/mul_12_20_n_258
*417 iDUT/mul_12_20_n_259
*418 iDUT/mul_12_20_n_260
*419 iDUT/mul_12_20_n_261
*420 iDUT/mul_12_20_n_262
*421 iDUT/mul_12_20_n_263
*422 iDUT/mul_12_20_n_264
*423 iDUT/mul_12_20_n_265
*424 iDUT/mul_12_20_n_266
*425 iDUT/mul_12_20_n_267
*426 iDUT/mul_12_20_n_268
*427 iDUT/mul_12_20_n_269
*428 iDUT/mul_12_20_n_271
*429 iDUT/mul_12_20_n_272
*430 iDUT/mul_12_20_n_273
*431 iDUT/mul_12_20_n_274
*432 iDUT/mul_12_20_n_275
*433 iDUT/mul_12_20_n_276
*434 iDUT/mul_12_20_n_277
*435 iDUT/mul_12_20_n_278
*436 iDUT/mul_12_20_n_279
*437 iDUT/mul_12_20_n_280
*438 iDUT/mul_12_20_n_281
*439 iDUT/mul_12_20_n_282
*440 iDUT/mul_12_20_n_283
*441 iDUT/mul_12_20_n_284
*442 iDUT/mul_12_20_n_285
*443 iDUT/mul_12_20_n_286
*444 iDUT/mul_12_20_n_288
*445 iDUT/mul_12_20_n_289
*446 iDUT/mul_12_20_n_290
*447 iDUT/mul_12_20_n_291
*448 iDUT/mul_12_20_n_292
*449 iDUT/mul_12_20_n_293
*450 iDUT/mul_12_20_n_294
*451 iDUT/mul_12_20_n_295
*452 iDUT/mul_12_20_n_296
*453 iDUT/mul_12_20_n_298
*454 iDUT/mul_12_20_n_299
*455 iDUT/mul_12_20_n_300
*456 iDUT/mul_12_20_n_301
*457 iDUT/mul_12_20_n_302
*458 iDUT/mul_12_20_n_304
*459 iDUT/mul_12_20_n_305
*460 iDUT/mul_12_20_n_307
*461 iDUT/mul_12_20_n_308
*462 iDUT/mul_12_20_n_310
*463 iDUT/mul_12_20_n_312
*464 iDUT/mul_12_20_n_314
*465 iDUT/mul_12_20_n_316
*466 iDUT/mul_12_20_n_318
*467 iDUT/mul_12_20_g5766__8780
*468 iDUT/mul_12_20_g5767__4296
*469 iDUT/mul_12_20_g5768__3772
*470 iDUT/mul_12_20_g5769__1474
*471 iDUT/mul_12_20_g5770__4547
*472 iDUT/mul_12_20_g5771__9682
*473 iDUT/mul_12_20_g5772__2683
*474 iDUT/mul_12_20_g5773__1309
*475 iDUT/mul_12_20_g5774__6877
*476 iDUT/mul_12_20_g5775__2900
*477 iDUT/mul_12_20_g5776__2391
*478 iDUT/mul_12_20_g5777__7675
*479 iDUT/mul_12_20_g5778__7118
*480 iDUT/mul_12_20_g5779__8757
*481 iDUT/mul_12_20_g5780__1786
*482 iDUT/mul_12_20_g5781__5953
*483 iDUT/mul_12_20_g5782__5703
*484 iDUT/mul_12_20_g5783__7114
*485 iDUT/mul_12_20_g5784__5266
*486 iDUT/mul_12_20_g5785__2250
*487 iDUT/mul_12_20_g5786__6083
*488 iDUT/mul_12_20_g5787__2703
*489 iDUT/mul_12_20_g5788__5795
*490 iDUT/mul_12_20_g5789__7344
*491 iDUT/mul_12_20_g5790__1840
*492 iDUT/mul_12_20_g5791__5019
*493 iDUT/mul_12_20_g5792__1857
*494 iDUT/mul_12_20_g5793__9906
*495 iDUT/mul_12_20_g5794__8780
*496 iDUT/mul_12_20_g5795__4296
*497 iDUT/mul_12_20_g5796__3772
*498 iDUT/mul_12_20_g5797__1474
*499 iDUT/mul_12_20_g5798__4547
*500 iDUT/mul_12_20_g5799__9682
*501 iDUT/mul_12_20_g5800__2683
*502 iDUT/mul_12_20_g5801__1309
*503 iDUT/mul_12_20_g5802__6877
*504 iDUT/mul_12_20_g5803__2900
*505 iDUT/mul_12_20_g5804__2391
*506 iDUT/mul_12_20_g5805__7675
*507 iDUT/mul_12_20_g5807__7118
*508 iDUT/mul_12_20_g5808__8757
*509 iDUT/mul_12_20_g5809__1786
*510 iDUT/mul_12_20_g5810__5953
*511 iDUT/mul_12_20_g5811__5703
*512 iDUT/mul_12_20_g5812__7114
*513 iDUT/mul_12_20_g5813__5266
*514 iDUT/mul_12_20_g5814__2250
*515 iDUT/mul_12_20_g5815__6083
*516 iDUT/mul_12_20_g5816__2703
*517 iDUT/mul_12_20_g5817__5795
*518 iDUT/mul_12_20_g5818__7344
*519 iDUT/mul_12_20_g5819__1840
*520 iDUT/mul_12_20_g5820__5019
*521 iDUT/mul_12_20_g5821__1857
*522 iDUT/mul_12_20_g5822__9906
*523 iDUT/mul_12_20_g5823__8780
*524 iDUT/mul_12_20_g5824__4296
*525 iDUT/mul_12_20_g5825__3772
*526 iDUT/mul_12_20_g5826__1474
*527 iDUT/mul_12_20_g5827__4547
*528 iDUT/mul_12_20_g5828__9682
*529 iDUT/mul_12_20_g5829__2683
*530 iDUT/mul_12_20_g5830__1309
*531 iDUT/mul_12_20_g5831__6877
*532 iDUT/mul_12_20_g5832__2900
*533 iDUT/mul_12_20_g5833__2391
*534 iDUT/mul_12_20_g5834__7675
*535 iDUT/mul_12_20_g5835__7118
*536 iDUT/mul_12_20_g5837__8757
*537 iDUT/mul_12_20_g5838__1786
*538 iDUT/mul_12_20_g5839__5953
*539 iDUT/mul_12_20_g5840__5703
*540 iDUT/mul_12_20_g5841__7114
*541 iDUT/mul_12_20_g5842__5266
*542 iDUT/mul_12_20_g5843__2250
*543 iDUT/mul_12_20_g5844__6083
*544 iDUT/mul_12_20_g5845__2703
*545 iDUT/mul_12_20_g5846__5795
*546 iDUT/mul_12_20_g5847__7344
*547 iDUT/mul_12_20_g5848__1840
*548 iDUT/mul_12_20_g5849__5019
*549 iDUT/mul_12_20_g5850__1857
*550 iDUT/mul_12_20_g5851__9906
*551 iDUT/mul_12_20_g5852__8780
*552 iDUT/mul_12_20_g5853__4296
*553 iDUT/mul_12_20_g5854__3772
*554 iDUT/mul_12_20_g5855__1474
*555 iDUT/mul_12_20_g5856__4547
*556 iDUT/mul_12_20_g5857__9682
*557 iDUT/mul_12_20_g5858__2683
*558 iDUT/mul_12_20_g5859__1309
*559 iDUT/mul_12_20_g5860__6877
*560 iDUT/mul_12_20_g5862__2900
*561 iDUT/mul_12_20_g5863__2391
*562 iDUT/mul_12_20_g5864__7675
*563 iDUT/mul_12_20_g5865__7118
*564 iDUT/mul_12_20_g5866__8757
*565 iDUT/mul_12_20_g5867__1786
*566 iDUT/mul_12_20_g5868__5953
*567 iDUT/mul_12_20_g5869__5703
*568 iDUT/mul_12_20_g5870__7114
*569 iDUT/mul_12_20_g5871__5266
*570 iDUT/mul_12_20_g5872__2250
*571 iDUT/mul_12_20_g5873__6083
*572 iDUT/mul_12_20_g5874__2703
*573 iDUT/mul_12_20_g5875__5795
*574 iDUT/mul_12_20_g5876__7344
*575 iDUT/mul_12_20_g5877__1840
*576 iDUT/mul_12_20_g5878__5019
*577 iDUT/mul_12_20_g5879__1857
*578 iDUT/mul_12_20_g5880__9906
*579 iDUT/mul_12_20_g5881__8780
*580 iDUT/mul_12_20_g5882__4296
*581 iDUT/mul_12_20_g5883__3772
*582 iDUT/mul_12_20_g5884__1474
*583 iDUT/mul_12_20_g5885__4547
*584 iDUT/mul_12_20_g5886__9682
*585 iDUT/mul_12_20_g5887__2683
*586 iDUT/mul_12_20_g5888__1309
*587 iDUT/mul_12_20_g5889__6877
*588 iDUT/mul_12_20_g5890__2900
*589 iDUT/mul_12_20_g5891__2391
*590 iDUT/mul_12_20_g5892__7675
*591 iDUT/mul_12_20_g5893__7118
*592 iDUT/mul_12_20_g5894__8757
*593 iDUT/mul_12_20_g5895__1786
*594 iDUT/mul_12_20_g5896__5953
*595 iDUT/mul_12_20_g5897__5703
*596 iDUT/mul_12_20_g5899__7114
*597 iDUT/mul_12_20_g5900__5266
*598 iDUT/mul_12_20_g5901__2250
*599 iDUT/mul_12_20_g5902__6083
*600 iDUT/mul_12_20_g5903__2703
*601 iDUT/mul_12_20_g5904__5795
*602 iDUT/mul_12_20_g5905__7344
*603 iDUT/mul_12_20_g5906__1840
*604 iDUT/mul_12_20_g5907__5019
*605 iDUT/mul_12_20_g5908__1857
*606 iDUT/mul_12_20_g5909__9906
*607 iDUT/mul_12_20_g5910__8780
*608 iDUT/mul_12_20_g5911__4296
*609 iDUT/mul_12_20_g5912__3772
*610 iDUT/mul_12_20_g5913__1474
*611 iDUT/mul_12_20_g5914__4547
*612 iDUT/mul_12_20_g5915__9682
*613 iDUT/mul_12_20_g5916__2683
*614 iDUT/mul_12_20_g5917
*615 iDUT/mul_12_20_g5918__1309
*616 iDUT/mul_12_20_g5919__6877
*617 iDUT/mul_12_20_g5920__2900
*618 iDUT/mul_12_20_g5921__2391
*619 iDUT/mul_12_20_g5922__7675
*620 iDUT/mul_12_20_g5923__7118
*621 iDUT/mul_12_20_g5924__8757
*622 iDUT/mul_12_20_g5925__1786
*623 iDUT/mul_12_20_g5926__5953
*624 iDUT/mul_12_20_g5927__5703
*625 iDUT/mul_12_20_g5928__7114
*626 iDUT/mul_12_20_g5929__5266
*627 iDUT/mul_12_20_g5930__2250
*628 iDUT/mul_12_20_g5931__6083
*629 iDUT/mul_12_20_g5933__2703
*630 iDUT/mul_12_20_g5934__5795
*631 iDUT/mul_12_20_g5935__7344
*632 iDUT/mul_12_20_g5936__1840
*633 iDUT/mul_12_20_g5937__5019
*634 iDUT/mul_12_20_g5938__1857
*635 iDUT/mul_12_20_g5939__9906
*636 iDUT/mul_12_20_g5940__8780
*637 iDUT/mul_12_20_g5941__4296
*638 iDUT/mul_12_20_g5942__3772
*639 iDUT/mul_12_20_g5943__1474
*640 iDUT/mul_12_20_g5944__4547
*641 iDUT/mul_12_20_g5945__9682
*642 iDUT/mul_12_20_g5946__2683
*643 iDUT/mul_12_20_g5947__1309
*644 iDUT/mul_12_20_g5948__6877
*645 iDUT/mul_12_20_g5949__2900
*646 iDUT/mul_12_20_g5950__2391
*647 iDUT/mul_12_20_g5951__7675
*648 iDUT/mul_12_20_g5952__7118
*649 iDUT/mul_12_20_g5953__8757
*650 iDUT/mul_12_20_g5954__1786
*651 iDUT/mul_12_20_g5955__5953
*652 iDUT/mul_12_20_g5956__5703
*653 iDUT/mul_12_20_g5957__7114
*654 iDUT/mul_12_20_g5958__5266
*655 iDUT/mul_12_20_g5959__2250
*656 iDUT/mul_12_20_g5960__6083
*657 iDUT/mul_12_20_g5961__2703
*658 iDUT/mul_12_20_g5962__5795
*659 iDUT/mul_12_20_g5963__7344
*660 iDUT/mul_12_20_g5964__1840
*661 iDUT/mul_12_20_g5965__5019
*662 iDUT/mul_12_20_g5966__1857
*663 iDUT/mul_12_20_g5967__9906
*664 iDUT/mul_12_20_g5968__8780
*665 iDUT/mul_12_20_g5969
*666 iDUT/mul_12_20_g5970
*667 iDUT/mul_12_20_g5971__4296
*668 iDUT/mul_12_20_g5972__3772
*669 iDUT/mul_12_20_g5973__1474
*670 iDUT/mul_12_20_g5974__4547
*671 iDUT/mul_12_20_g5975__9682
*672 iDUT/mul_12_20_g5976__2683
*673 iDUT/mul_12_20_g5977__1309
*674 iDUT/mul_12_20_g5978__6877
*675 iDUT/mul_12_20_g5979__2900
*676 iDUT/mul_12_20_g5980__2391
*677 iDUT/mul_12_20_g5981__7675
*678 iDUT/mul_12_20_g5982__7118
*679 iDUT/mul_12_20_g5983__8757
*680 iDUT/mul_12_20_g5984__1786
*681 iDUT/mul_12_20_g5985__5953
*682 iDUT/mul_12_20_g5986__5703
*683 iDUT/mul_12_20_g5987__7114
*684 iDUT/mul_12_20_g5988__5266
*685 iDUT/mul_12_20_g5989__2250
*686 iDUT/mul_12_20_g5990__6083
*687 iDUT/mul_12_20_g5991__2703
*688 iDUT/mul_12_20_g5992__5795
*689 iDUT/mul_12_20_g5993__7344
*690 iDUT/mul_12_20_g5994__1840
*691 iDUT/mul_12_20_g5995__5019
*692 iDUT/mul_12_20_g5996__1857
*693 iDUT/mul_12_20_g5997__9906
*694 iDUT/mul_12_20_g5998__8780
*695 iDUT/mul_12_20_g5999__4296
*696 iDUT/mul_12_20_g6000__3772
*697 iDUT/mul_12_20_g6001__1474
*698 iDUT/mul_12_20_g6002__4547
*699 iDUT/mul_12_20_g6003__9682
*700 iDUT/mul_12_20_g6004__2683
*701 iDUT/mul_12_20_g6005__1309
*702 iDUT/mul_12_20_g6006__6877
*703 iDUT/mul_12_20_g6007__2900
*704 iDUT/mul_12_20_g6008__2391
*705 iDUT/mul_12_20_g6009__7675
*706 iDUT/mul_12_20_g6010__7118
*707 iDUT/mul_12_20_g6011__8757
*708 iDUT/mul_12_20_g6012__1786
*709 iDUT/mul_12_20_g6013__5953
*710 iDUT/mul_12_20_g6014__5703
*711 iDUT/mul_12_20_g6015__7114
*712 iDUT/mul_12_20_g6016__5266
*713 iDUT/mul_12_20_g6017__2250
*714 iDUT/mul_12_20_g6018__6083
*715 iDUT/mul_12_20_g6019__2703
*716 iDUT/mul_12_20_g6020__5795
*717 iDUT/mul_12_20_g6021__7344
*718 iDUT/mul_12_20_g6022__1840
*719 iDUT/mul_12_20_g6023
*720 iDUT/mul_12_20_g6024
*721 iDUT/mul_12_20_g6025
*722 iDUT/mul_12_20_g6026
*723 iDUT/mul_12_20_g6027
*724 iDUT/mul_12_20_g6028
*725 iDUT/mul_12_20_g6029
*726 iDUT/mul_12_20_g6030
*727 iDUT/mul_12_20_g6031
*728 iDUT/mul_12_20_g6032
*729 iDUT/mul_12_20_g2__5019
*730 iDUT/mul_12_20_g6033__1857
*731 product_flopped_reg_15
*732 product_flopped_reg_13
*733 product_flopped_reg_9
*734 product_flopped_reg_1
*735 product_flopped_reg_0
*736 product_flopped_reg_8
*737 product_flopped_reg_12
*738 product_flopped_reg_7
*739 product_flopped_reg_6
*740 product_flopped_reg_14
*741 product_flopped_reg_11
*742 product_flopped_reg_5
*743 product_flopped_reg_4
*744 product_flopped_reg_10
*745 product_flopped_reg_3
*746 product_flopped_reg_2
*747 a_flopped_reg_7
*748 a_flopped_reg_2
*749 b_flopped_reg_5
*750 b_flopped_reg_6
*751 b_flopped_reg_7
*752 b_flopped_reg_8
*753 b_flopped_reg_10
*754 b_flopped_reg_11
*755 a_flopped_reg_9
*756 b_flopped_reg_13
*757 b_flopped_reg_3
*758 b_flopped_reg_15
*759 a_flopped_reg_10
*760 a_flopped_reg_13
*761 a_flopped_reg_8
*762 a_flopped_reg_3
*763 b_flopped_reg_14
*764 a_flopped_reg_14
*765 a_flopped_reg_12
*766 b_flopped_reg_0
*767 a_flopped_reg_15
*768 b_flopped_reg_1
*769 a_flopped_reg_6
*770 b_flopped_reg_2
*771 a_flopped_reg_4
*772 a_flopped_reg_0
*773 b_flopped_reg_12
*774 a_flopped_reg_1
*775 a_flopped_reg_5
*776 b_flopped_reg_9
*777 a_flopped_reg_11
*778 b_flopped_reg_4

*PORTS

*1 I
*2 I
*3 I
*4 I
*5 I
*6 I
*7 I
*8 I
*9 I
*10 I
*11 I
*12 I
*13 I
*14 I
*15 I
*16 I
*17 I
*18 I
*19 I
*20 I
*21 I
*22 I
*23 I
*24 I
*25 I
*26 I
*27 I
*28 I
*29 I
*30 I
*31 I
*32 I
*33 I
*34 O
*35 O
*36 O
*37 O
*38 O
*39 O
*40 O
*41 O
*42 O
*43 O
*44 O
*45 O
*46 O
*47 O
*48 O
*49 O
*50 O
*51 O
*52 O
*53 O
*54 O
*55 O
*56 O
*57 O
*58 O
*59 O
*60 O
*61 O
*62 O
*63 O
*64 O
*65 O

*D_NET *66 0.001300

*CONN
*I *772:D I *L 0.0011 *D DFF_X1
*P *16 I

*CAP
1 *66:1 0.0013

*RES
1 *16 *66:1 10
2 *66:1 *772:D 10
*END

*D_NET *67 0.001300

*CONN
*I *774:D I *L 0.0011 *D DFF_X1
*P *15 I

*CAP
1 *67:1 0.0013

*RES
1 *15 *67:1 10
2 *67:1 *774:D 10
*END

*D_NET *68 0.001300

*CONN
*I *748:D I *L 0.0011 *D DFF_X1
*P *14 I

*CAP
1 *68:1 0.0013

*RES
1 *14 *68:1 10
2 *68:1 *748:D 10
*END

*D_NET *69 0.001300

*CONN
*I *762:D I *L 0.0011 *D DFF_X1
*P *13 I

*CAP
1 *69:1 0.0013

*RES
1 *13 *69:1 10
2 *69:1 *762:D 10
*END

*D_NET *70 0.001300

*CONN
*I *771:D I *L 0.0011 *D DFF_X1
*P *12 I

*CAP
1 *70:1 0.0013

*RES
1 *12 *70:1 10
2 *70:1 *771:D 10
*END

*D_NET *71 0.001300

*CONN
*I *775:D I *L 0.0011 *D DFF_X1
*P *11 I

*CAP
1 *71:1 0.0013

*RES
1 *11 *71:1 10
2 *71:1 *775:D 10
*END

*D_NET *72 0.001300

*CONN
*I *769:D I *L 0.0011 *D DFF_X1
*P *10 I

*CAP
1 *72:1 0.0013

*RES
1 *10 *72:1 10
2 *72:1 *769:D 10
*END

*D_NET *73 0.001300

*CONN
*I *747:D I *L 0.0011 *D DFF_X1
*P *9 I

*CAP
1 *73:1 0.0013

*RES
1 *9 *73:1 10
2 *73:1 *747:D 10
*END

*D_NET *74 0.001300

*CONN
*I *761:D I *L 0.0011 *D DFF_X1
*P *8 I

*CAP
1 *74:1 0.0013

*RES
1 *8 *74:1 10
2 *74:1 *761:D 10
*END

*D_NET *75 0.001300

*CONN
*I *755:D I *L 0.0011 *D DFF_X1
*P *7 I

*CAP
1 *75:1 0.0013

*RES
1 *7 *75:1 10
2 *75:1 *755:D 10
*END

*D_NET *76 0.001300

*CONN
*I *759:D I *L 0.0011 *D DFF_X1
*P *6 I

*CAP
1 *76:1 0.0013

*RES
1 *6 *76:1 10
2 *76:1 *759:D 10
*END

*D_NET *77 0.001300

*CONN
*I *777:D I *L 0.0011 *D DFF_X1
*P *5 I

*CAP
1 *77:1 0.0013

*RES
1 *5 *77:1 10
2 *77:1 *777:D 10
*END

*D_NET *78 0.001300

*CONN
*I *765:D I *L 0.0011 *D DFF_X1
*P *4 I

*CAP
1 *78:1 0.0013

*RES
1 *4 *78:1 10
2 *78:1 *765:D 10
*END

*D_NET *79 0.001300

*CONN
*I *760:D I *L 0.0011 *D DFF_X1
*P *3 I

*CAP
1 *79:1 0.0013

*RES
1 *3 *79:1 10
2 *79:1 *760:D 10
*END

*D_NET *80 0.001300

*CONN
*I *764:D I *L 0.0011 *D DFF_X1
*P *2 I

*CAP
1 *80:1 0.0013

*RES
1 *2 *80:1 10
2 *80:1 *764:D 10
*END

*D_NET *81 0.001300

*CONN
*I *767:D I *L 0.0011 *D DFF_X1
*P *1 I

*CAP
1 *81:1 0.0013

*RES
1 *1 *81:1 10
2 *81:1 *767:D 10
*END

*D_NET *82 0.013100

*CONN
*I *597:A1 I *L 0.0017 *D OAI22_X1
*I *728:A I *L 0.0017 *D INV_X1
*I *587:C1 I *L 0.0016 *D AOI221_X1
*I *586:C1 I *L 0.0016 *D AOI221_X1
*I *588:C1 I *L 0.0016 *D AOI221_X1
*I *589:C1 I *L 0.0016 *D AOI221_X1
*I *590:C1 I *L 0.0016 *D AOI221_X1
*I *591:C1 I *L 0.0016 *D AOI221_X1
*I *608:A2 I *L 0.0010 *D AND2_X1
*I *629:A I *L 0.0022 *D XNOR2_X1
*I *632:A I *L 0.0022 *D XNOR2_X1
*I *635:A I *L 0.0022 *D XNOR2_X1
*I *636:B1 I *L 0.0017 *D OAI21_X1
*I *712:A1 I *L 0.0009 *D OR2_X1
*I *713:A1 I *L 0.0009 *D OR2_X1
*I *714:A1 I *L 0.0009 *D OR2_X1
*I *715:A2 I *L 0.0009 *D OR2_X1
*I *716:A1 I *L 0.0009 *D OR2_X1
*I *717:A1 I *L 0.0009 *D OR2_X1
*I *772:Q O *L 0.0000 *D DFF_X1

*CAP
1 *82:1 0.0005
2 *82:2 0.0007
3 *82:3 0.0007
4 *82:4 0.0007
5 *82:5 0.0007
6 *82:6 0.0007
7 *82:7 0.0007
8 *82:8 0.0007
9 *82:9 0.0007
10 *82:10 0.0007
11 *82:11 0.0007
12 *82:12 0.0007
13 *82:13 0.0007
14 *82:14 0.0007
15 *82:15 0.0007
16 *82:16 0.0007
17 *82:17 0.0007
18 *82:18 0.0007
19 *82:19 0.0007

*RES
1 *772:Q *82:1 5.026315789
2 *82:1 *597:A1 5.026315789
3 *772:Q *82:2 5.026315789
4 *82:2 *728:A 5.026315789
5 *772:Q *82:3 5.026315789
6 *82:3 *587:C1 5.026315789
7 *772:Q *82:4 5.026315789
8 *82:4 *586:C1 5.026315789
9 *772:Q *82:5 5.026315789
10 *82:5 *588:C1 5.026315789
11 *772:Q *82:6 5.026315789
12 *82:6 *589:C1 5.026315789
13 *772:Q *82:7 5.026315789
14 *82:7 *590:C1 5.026315789
15 *772:Q *82:8 5.026315789
16 *82:8 *591:C1 5.026315789
17 *772:Q *82:9 5.026315789
18 *82:9 *608:A2 5.026315789
19 *772:Q *82:10 5.026315789
20 *82:10 *629:A 5.026315789
21 *772:Q *82:11 5.026315789
22 *82:11 *632:A 5.026315789
23 *772:Q *82:12 5.026315789
24 *82:12 *635:A 5.026315789
25 *772:Q *82:13 5.026315789
26 *82:13 *636:B1 5.026315789
27 *772:Q *82:14 5.026315789
28 *82:14 *712:A1 5.026315789
29 *772:Q *82:15 5.026315789
30 *82:15 *713:A1 5.026315789
31 *772:Q *82:16 5.026315789
32 *82:16 *714:A1 5.026315789
33 *772:Q *82:17 5.026315789
34 *82:17 *715:A2 5.026315789
35 *772:Q *82:18 5.026315789
36 *82:18 *716:A1 5.026315789
37 *772:Q *82:19 5.026315789
38 *82:19 *717:A1 5.026315789
*END

*D_NET *83 0.005900

*CONN
*I *658:B I *L 0.0026 *D XNOR2_X1
*I *637:B I *L 0.0026 *D XNOR2_X1
*I *670:A I *L 0.0022 *D XNOR2_X1
*I *675:A I *L 0.0022 *D XNOR2_X1
*I *677:B I *L 0.0026 *D XNOR2_X1
*I *687:A I *L 0.0022 *D XNOR2_X1
*I *699:A I *L 0.0022 *D XNOR2_X1
*I *705:A I *L 0.0022 *D XNOR2_X1
*I *774:Q O *L 0.0000 *D DFF_X1

*CAP
1 *83:1 0.001
2 *83:2 0.0007
3 *83:3 0.0007
4 *83:4 0.0007
5 *83:5 0.0007
6 *83:6 0.0007
7 *83:7 0.0007
8 *83:8 0.0007

*RES
1 *774:Q *83:1 5.375
2 *83:1 *658:B 5.375
3 *774:Q *83:2 5.375
4 *83:2 *637:B 5.375
5 *774:Q *83:3 5.375
6 *83:3 *670:A 5.375
7 *774:Q *83:4 5.375
8 *83:4 *675:A 5.375
9 *774:Q *83:5 5.375
10 *83:5 *677:B 5.375
11 *774:Q *83:6 5.375
12 *83:6 *687:A 5.375
13 *774:Q *83:7 5.375
14 *83:7 *699:A 5.375
15 *774:Q *83:8 5.375
16 *83:8 *705:A 5.375
*END

*D_NET *84 0.005300

*CONN
*I *653:B I *L 0.0026 *D XNOR2_X1
*I *652:B I *L 0.0026 *D XNOR2_X1
*I *678:B I *L 0.0026 *D XNOR2_X1
*I *685:B I *L 0.0026 *D XNOR2_X1
*I *696:B I *L 0.0026 *D XNOR2_X1
*I *698:B I *L 0.0026 *D XNOR2_X1
*I *704:A I *L 0.0022 *D XNOR2_X1
*I *748:Q O *L 0.0000 *D DFF_X1

*CAP
1 *84:1 0.0005
2 *84:2 0.0008
3 *84:3 0.0008
4 *84:4 0.0008
5 *84:5 0.0008
6 *84:6 0.0008
7 *84:7 0.0008

*RES
1 *748:Q *84:1 5.5
2 *84:1 *653:B 5.5
3 *748:Q *84:2 5.5
4 *84:2 *652:B 5.5
5 *748:Q *84:3 5.5
6 *84:3 *678:B 5.5
7 *748:Q *84:4 5.5
8 *84:4 *685:B 5.5
9 *748:Q *84:5 5.5
10 *84:5 *696:B 5.5
11 *748:Q *84:6 5.5
12 *84:6 *698:B 5.5
13 *748:Q *84:7 5.5
14 *84:7 *704:A 5.5
*END

*D_NET *85 0.005300

*CONN
*I *660:B I *L 0.0026 *D XNOR2_X1
*I *649:B I *L 0.0026 *D XNOR2_X1
*I *669:A I *L 0.0022 *D XNOR2_X1
*I *676:B I *L 0.0026 *D XNOR2_X1
*I *682:B I *L 0.0026 *D XNOR2_X1
*I *691:B I *L 0.0026 *D XNOR2_X1
*I *701:B I *L 0.0026 *D XNOR2_X1
*I *762:Q O *L 0.0000 *D DFF_X1

*CAP
1 *85:1 0.0005
2 *85:2 0.0008
3 *85:3 0.0008
4 *85:4 0.0008
5 *85:5 0.0008
6 *85:6 0.0008
7 *85:7 0.0008

*RES
1 *762:Q *85:1 5.5
2 *85:1 *660:B 5.5
3 *762:Q *85:2 5.5
4 *85:2 *649:B 5.5
5 *762:Q *85:3 5.5
6 *85:3 *669:A 5.5
7 *762:Q *85:4 5.5
8 *85:4 *676:B 5.5
9 *762:Q *85:5 5.5
10 *85:5 *682:B 5.5
11 *762:Q *85:6 5.5
12 *85:6 *691:B 5.5
13 *762:Q *85:7 5.5
14 *85:7 *701:B 5.5
*END

*D_NET *86 0.004600

*CONN
*I *661:B I *L 0.0026 *D XNOR2_X1
*I *651:B I *L 0.0026 *D XNOR2_X1
*I *681:B I *L 0.0026 *D XNOR2_X1
*I *692:B I *L 0.0026 *D XNOR2_X1
*I *700:B I *L 0.0026 *D XNOR2_X1
*I *702:B I *L 0.0026 *D XNOR2_X1
*I *771:Q O *L 0.0000 *D DFF_X1

*CAP
1 *86:1 0.0006
2 *86:2 0.0008
3 *86:3 0.0008
4 *86:4 0.0008
5 *86:5 0.0008
6 *86:6 0.0008

*RES
1 *771:Q *86:1 5.583333333
2 *86:1 *661:B 5.583333333
3 *771:Q *86:2 5.583333333
4 *86:2 *651:B 5.583333333
5 *771:Q *86:3 5.583333333
6 *86:3 *681:B 5.583333333
7 *771:Q *86:4 5.583333333
8 *86:4 *692:B 5.583333333
9 *771:Q *86:5 5.583333333
10 *86:5 *700:B 5.583333333
11 *771:Q *86:6 5.583333333
12 *86:6 *702:B 5.583333333
*END

*D_NET *87 0.004600

*CONN
*I *657:B I *L 0.0026 *D XNOR2_X1
*I *648:B I *L 0.0026 *D XNOR2_X1
*I *671:B I *L 0.0026 *D XNOR2_X1
*I *689:B I *L 0.0026 *D XNOR2_X1
*I *695:B I *L 0.0026 *D XNOR2_X1
*I *697:B I *L 0.0026 *D XNOR2_X1
*I *775:Q O *L 0.0000 *D DFF_X1

*CAP
1 *87:1 0.0006
2 *87:2 0.0008
3 *87:3 0.0008
4 *87:4 0.0008
5 *87:5 0.0008
6 *87:6 0.0008

*RES
1 *775:Q *87:1 5.583333333
2 *87:1 *657:B 5.583333333
3 *775:Q *87:2 5.583333333
4 *87:2 *648:B 5.583333333
5 *775:Q *87:3 5.583333333
6 *87:3 *671:B 5.583333333
7 *775:Q *87:4 5.583333333
8 *87:4 *689:B 5.583333333
9 *775:Q *87:5 5.583333333
10 *87:5 *695:B 5.583333333
11 *775:Q *87:6 5.583333333
12 *87:6 *697:B 5.583333333
*END

*D_NET *88 0.004000

*CONN
*I *655:B I *L 0.0026 *D XNOR2_X1
*I *647:B I *L 0.0026 *D XNOR2_X1
*I *683:B I *L 0.0026 *D XNOR2_X1
*I *690:B I *L 0.0026 *D XNOR2_X1
*I *694:B I *L 0.0026 *D XNOR2_X1
*I *769:Q O *L 0.0000 *D DFF_X1

*CAP
1 *88:1 0.0008
2 *88:2 0.0008
3 *88:3 0.0008
4 *88:4 0.0008
5 *88:5 0.0008

*RES
1 *769:Q *88:1 5.8
2 *88:1 *655:B 5.8
3 *769:Q *88:2 5.8
4 *88:2 *647:B 5.8
5 *769:Q *88:3 5.8
6 *88:3 *683:B 5.8
7 *769:Q *88:4 5.8
8 *88:4 *690:B 5.8
9 *769:Q *88:5 5.8
10 *88:5 *694:B 5.8
*END

*D_NET *89 0.004000

*CONN
*I *654:B I *L 0.0026 *D XNOR2_X1
*I *646:B I *L 0.0026 *D XNOR2_X1
*I *672:B I *L 0.0026 *D XNOR2_X1
*I *680:B I *L 0.0026 *D XNOR2_X1
*I *693:B I *L 0.0026 *D XNOR2_X1
*I *747:Q O *L 0.0000 *D DFF_X1

*CAP
1 *89:1 0.0008
2 *89:2 0.0008
3 *89:3 0.0008
4 *89:4 0.0008
5 *89:5 0.0008

*RES
1 *747:Q *89:1 5.8
2 *89:1 *654:B 5.8
3 *747:Q *89:2 5.8
4 *89:2 *646:B 5.8
5 *747:Q *89:3 5.8
6 *89:3 *672:B 5.8
7 *747:Q *89:4 5.8
8 *89:4 *680:B 5.8
9 *747:Q *89:5 5.8
10 *89:5 *693:B 5.8
*END

*D_NET *90 0.003300

*CONN
*I *656:B I *L 0.0026 *D XNOR2_X1
*I *642:B I *L 0.0026 *D XNOR2_X1
*I *686:B I *L 0.0026 *D XNOR2_X1
*I *688:B I *L 0.0026 *D XNOR2_X1
*I *761:Q O *L 0.0000 *D DFF_X1

*CAP
1 *90:1 0.0009
2 *90:2 0.0008
3 *90:3 0.0008
4 *90:4 0.0008

*RES
1 *761:Q *90:1 6
2 *90:1 *656:B 6
3 *761:Q *90:2 6
4 *90:2 *642:B 6
5 *761:Q *90:3 6
6 *90:3 *686:B 6
7 *761:Q *90:4 6
8 *90:4 *688:B 6
*END

*D_NET *91 0.003300

*CONN
*I *645:B I *L 0.0026 *D XNOR2_X1
*I *638:B I *L 0.0026 *D XNOR2_X1
*I *673:B I *L 0.0026 *D XNOR2_X1