*SPEF "IEEE 1481-1998"
*DESIGN "Modulus_16_flopped"
*DATE "Mon Apr 21 11:43:25 pm 2025"
*VENDOR "Cadence Design Systems"
*PROGRAM "Genus(TM) Synthesis Solution"
*VERSION "18.14-s037_1"
*DESIGN_FLOW "PIN_CAP NONE" "NAME_SCOPE LOCAL"
*DIVIDER /
*DELIMITER :
*BUS_DELIMITER []
*T_UNIT 1 NS
*C_UNIT 1 PF
*R_UNIT 1 OHM
*L_UNIT 1 HENRY
// Interconnect mode: global

*NAME_MAP

*1 a[15]
*2 a[14]
*3 a[13]
*4 a[12]
*5 a[11]
*6 a[10]
*7 a[9]
*8 a[8]
*9 a[7]
*10 a[6]
*11 a[5]
*12 a[4]
*13 a[3]
*14 a[2]
*15 a[1]
*16 a[0]
*17 b[15]
*18 b[14]
*19 b[13]
*20 b[12]
*21 b[11]
*22 b[10]
*23 b[9]
*24 b[8]
*25 b[7]
*26 b[6]
*27 b[5]
*28 b[4]
*29 b[3]
*30 b[2]
*31 b[1]
*32 b[0]
*33 clk
*34 result_flopped[15]
*35 result_flopped[14]
*36 result_flopped[13]
*37 result_flopped[12]
*38 result_flopped[11]
*39 result_flopped[10]
*40 result_flopped[9]
*41 result_flopped[8]
*42 result_flopped[7]
*43 result_flopped[6]
*44 result_flopped[5]
*45 result_flopped[4]
*46 result_flopped[3]
*47 result_flopped[2]
*48 result_flopped[1]
*49 result_flopped[0]
*50 a[0]
*51 a[1]
*52 a[2]
*53 a[3]
*54 a[4]
*55 a[5]
*56 a[6]
*57 a[7]
*58 a[8]
*59 a[9]
*60 a[10]
*61 a[11]
*62 a[12]
*63 a[13]
*64 a[14]
*65 a[15]
*66 a_flopped_0
*67 a_flopped_1
*68 a_flopped_2
*69 a_flopped_3
*70 a_flopped_4
*71 a_flopped_5
*72 a_flopped_6
*73 a_flopped_7
*74 a_flopped_8
*75 a_flopped_9
*76 a_flopped_10
*77 a_flopped_11
*78 a_flopped_12
*79 a_flopped_13
*80 a_flopped_14
*81 a_flopped_15
*82 b[0]
*83 b[1]
*84 b[2]
*85 b[3]
*86 b[4]
*87 b[5]
*88 b[6]
*89 b[7]
*90 b[8]
*91 b[9]
*92 b[10]
*93 b[11]
*94 b[12]
*95 b[13]
*96 b[14]
*97 b[15]
*98 b_flopped_0
*99 b_flopped_1
*100 b_flopped_2
*101 b_flopped_3
*102 b_flopped_4
*103 b_flopped_5
*104 b_flopped_6
*105 b_flopped_7
*106 b_flopped_8
*107 b_flopped_9
*108 b_flopped_10
*109 b_flopped_11
*110 b_flopped_12
*111 b_flopped_13
*112 b_flopped_14
*113 result_0
*114 result_1
*115 result_2
*116 result_3
*117 result_4
*118 result_5
*119 result_6
*120 result_7
*121 result_8
*122 result_9
*123 result_10
*124 result_11
*125 result_12
*126 result_13
*127 result_14
*128 result_15
*129 result_flopped[0]
*130 result_flopped[1]
*131 result_flopped[2]
*132 result_flopped[3]
*133 result_flopped[4]
*134 result_flopped[5]
*135 result_flopped[6]
*136 result_flopped[7]
*137 result_flopped[8]
*138 result_flopped[9]
*139 result_flopped[10]
*140 result_flopped[11]
*141 result_flopped[12]
*142 result_flopped[13]
*143 result_flopped[14]
*144 result_flopped[15]
*145 n_0
*146 clk
*147 iDUT/rem_12_20_n_0
*148 iDUT/rem_12_20_n_1
*149 iDUT/rem_12_20_n_2
*150 iDUT/rem_12_20_n_3
*151 iDUT/rem_12_20_n_4
*152 iDUT/rem_12_20_n_5
*153 iDUT/rem_12_20_n_6
*154 iDUT/rem_12_20_n_7
*155 iDUT/rem_12_20_n_8
*156 iDUT/rem_12_20_n_10
*157 iDUT/rem_12_20_n_11
*158 iDUT/rem_12_20_n_12
*159 iDUT/rem_12_20_n_13
*160 iDUT/rem_12_20_n_14
*161 iDUT/rem_12_20_n_15
*162 iDUT/rem_12_20_n_17
*163 iDUT/rem_12_20_n_19
*164 iDUT/rem_12_20_n_20
*165 iDUT/rem_12_20_n_21
*166 iDUT/rem_12_20_n_22
*167 iDUT/rem_12_20_n_23
*168 iDUT/rem_12_20_n_24
*169 iDUT/rem_12_20_n_25
*170 iDUT/rem_12_20_n_26
*171 iDUT/rem_12_20_n_27
*172 iDUT/rem_12_20_n_28
*173 iDUT/rem_12_20_n_29
*174 iDUT/rem_12_20_n_31
*175 iDUT/rem_12_20_n_32
*176 iDUT/rem_12_20_n_33
*177 iDUT/rem_12_20_n_34
*178 iDUT/rem_12_20_n_35
*179 iDUT/rem_12_20_n_36
*180 iDUT/rem_12_20_n_37
*181 iDUT/rem_12_20_n_38
*182 iDUT/rem_12_20_n_39
*183 iDUT/rem_12_20_n_40
*184 iDUT/rem_12_20_n_41
*185 iDUT/rem_12_20_n_42
*186 iDUT/rem_12_20_n_43
*187 iDUT/rem_12_20_n_44
*188 iDUT/rem_12_20_n_45
*189 iDUT/rem_12_20_n_46
*190 iDUT/rem_12_20_n_47
*191 iDUT/rem_12_20_n_48
*192 iDUT/rem_12_20_n_49
*193 iDUT/rem_12_20_n_50
*194 iDUT/rem_12_20_n_51
*195 iDUT/rem_12_20_n_52
*196 iDUT/rem_12_20_n_53
*197 iDUT/rem_12_20_n_54
*198 iDUT/rem_12_20_n_55
*199 iDUT/rem_12_20_n_56
*200 iDUT/rem_12_20_n_57
*201 iDUT/rem_12_20_n_58
*202 iDUT/rem_12_20_n_59
*203 iDUT/rem_12_20_n_60
*204 iDUT/rem_12_20_n_61
*205 iDUT/rem_12_20_n_62
*206 iDUT/rem_12_20_n_63
*207 iDUT/rem_12_20_n_64
*208 iDUT/rem_12_20_n_65
*209 iDUT/rem_12_20_n_66
*210 iDUT/rem_12_20_n_67
*211 iDUT/rem_12_20_n_68
*212 iDUT/rem_12_20_n_69
*213 iDUT/rem_12_20_n_70
*214 iDUT/rem_12_20_n_71
*215 iDUT/rem_12_20_n_72
*216 iDUT/rem_12_20_n_73
*217 iDUT/rem_12_20_n_74
*218 iDUT/rem_12_20_n_75
*219 iDUT/rem_12_20_n_76
*220 iDUT/rem_12_20_n_78
*221 iDUT/rem_12_20_n_79
*222 iDUT/rem_12_20_n_80
*223 iDUT/rem_12_20_n_81
*224 iDUT/rem_12_20_n_82
*225 iDUT/rem_12_20_n_83
*226 iDUT/rem_12_20_n_84
*227 iDUT/rem_12_20_n_85
*228 iDUT/rem_12_20_n_86
*229 iDUT/rem_12_20_n_87
*230 iDUT/rem_12_20_n_88
*231 iDUT/rem_12_20_n_89
*232 iDUT/rem_12_20_n_90
*233 iDUT/rem_12_20_n_91
*234 iDUT/rem_12_20_n_92
*235 iDUT/rem_12_20_n_93
*236 iDUT/rem_12_20_n_94
*237 iDUT/rem_12_20_n_95
*238 iDUT/rem_12_20_n_96
*239 iDUT/rem_12_20_n_97
*240 iDUT/rem_12_20_n_98
*241 iDUT/rem_12_20_n_99
*242 iDUT/rem_12_20_n_100
*243 iDUT/rem_12_20_n_101
*244 iDUT/rem_12_20_n_102
*245 iDUT/rem_12_20_n_106
*246 iDUT/rem_12_20_n_107
*247 iDUT/rem_12_20_n_108
*248 iDUT/rem_12_20_n_109
*249 iDUT/rem_12_20_n_110
*250 iDUT/rem_12_20_n_111
*251 iDUT/rem_12_20_n_112
*252 iDUT/rem_12_20_n_113
*253 iDUT/rem_12_20_n_114
*254 iDUT/rem_12_20_n_115
*255 iDUT/rem_12_20_n_116
*256 iDUT/rem_12_20_n_117
*257 iDUT/rem_12_20_n_118
*258 iDUT/rem_12_20_n_119
*259 iDUT/rem_12_20_n_120
*260 iDUT/rem_12_20_n_121
*261 iDUT/rem_12_20_n_122
*262 iDUT/rem_12_20_n_123
*263 iDUT/rem_12_20_n_124
*264 iDUT/rem_12_20_n_125
*265 iDUT/rem_12_20_n_126
*266 iDUT/rem_12_20_n_127
*267 iDUT/rem_12_20_n_128
*268 iDUT/rem_12_20_n_129
*269 iDUT/rem_12_20_n_130
*270 iDUT/rem_12_20_n_131
*271 iDUT/rem_12_20_n_132
*272 iDUT/rem_12_20_n_133
*273 iDUT/rem_12_20_n_134
*274 iDUT/rem_12_20_n_135
*275 iDUT/rem_12_20_n_136
*276 iDUT/rem_12_20_n_137
*277 iDUT/rem_12_20_n_138
*278 iDUT/rem_12_20_n_139
*279 iDUT/rem_12_20_n_140
*280 iDUT/rem_12_20_n_141
*281 iDUT/rem_12_20_n_142
*282 iDUT/rem_12_20_n_143
*283 iDUT/rem_12_20_n_144
*284 iDUT/rem_12_20_n_145
*285 iDUT/rem_12_20_n_146
*286 iDUT/rem_12_20_n_147
*287 iDUT/rem_12_20_n_148
*288 iDUT/rem_12_20_n_149
*289 iDUT/rem_12_20_n_150
*290 iDUT/rem_12_20_n_151
*291 iDUT/rem_12_20_n_152
*292 iDUT/rem_12_20_n_153
*293 iDUT/rem_12_20_n_154
*294 iDUT/rem_12_20_n_155
*295 iDUT/rem_12_20_n_156
*296 iDUT/rem_12_20_n_157
*297 iDUT/rem_12_20_n_158
*298 iDUT/rem_12_20_n_159
*299 iDUT/rem_12_20_n_160
*300 iDUT/rem_12_20_n_161
*301 iDUT/rem_12_20_n_162
*302 iDUT/rem_12_20_n_163
*303 iDUT/rem_12_20_n_164
*304 iDUT/rem_12_20_n_165
*305 iDUT/rem_12_20_n_166
*306 iDUT/rem_12_20_n_167
*307 iDUT/rem_12_20_n_168
*308 iDUT/rem_12_20_n_169
*309 iDUT/rem_12_20_n_170
*310 iDUT/rem_12_20_n_171
*311 iDUT/rem_12_20_n_172
*312 iDUT/rem_12_20_n_173
*313 iDUT/rem_12_20_n_174
*314 iDUT/rem_12_20_n_175
*315 iDUT/rem_12_20_n_176
*316 iDUT/rem_12_20_n_177
*317 iDUT/rem_12_20_n_178
*318 iDUT/rem_12_20_n_179
*319 iDUT/rem_12_20_n_180
*320 iDUT/rem_12_20_n_181
*321 iDUT/rem_12_20_n_182
*322 iDUT/rem_12_20_n_183
*323 iDUT/rem_12_20_n_184
*324 iDUT/rem_12_20_n_185
*325 iDUT/rem_12_20_n_186
*326 iDUT/rem_12_20_n_187
*327 iDUT/rem_12_20_n_188
*328 iDUT/rem_12_20_n_189
*329 iDUT/rem_12_20_n_190
*330 iDUT/rem_12_20_n_191
*331 iDUT/rem_12_20_n_192
*332 iDUT/rem_12_20_n_193
*333 iDUT/rem_12_20_n_194
*334 iDUT/rem_12_20_n_195
*335 iDUT/rem_12_20_n_196
*336 iDUT/rem_12_20_n_197
*337 iDUT/rem_12_20_n_198
*338 iDUT/rem_12_20_n_199
*339 iDUT/rem_12_20_n_200
*340 iDUT/rem_12_20_n_201
*341 iDUT/rem_12_20_n_202
*342 iDUT/rem_12_20_n_203
*343 iDUT/rem_12_20_n_204
*344 iDUT/rem_12_20_n_205
*345 iDUT/rem_12_20_n_206
*346 iDUT/rem_12_20_n_207
*347 iDUT/rem_12_20_n_209
*348 iDUT/rem_12_20_n_210
*349 iDUT/rem_12_20_n_211
*350 iDUT/rem_12_20_n_212
*351 iDUT/rem_12_20_n_213
*352 iDUT/rem_12_20_n_214
*353 iDUT/rem_12_20_n_215
*354 iDUT/rem_12_20_n_216
*355 iDUT/rem_12_20_n_217
*356 iDUT/rem_12_20_n_218
*357 iDUT/rem_12_20_n_219
*358 iDUT/rem_12_20_n_220
*359 iDUT/rem_12_20_n_221
*360 iDUT/rem_12_20_n_222
*361 iDUT/rem_12_20_n_223
*362 iDUT/rem_12_20_n_224
*363 iDUT/rem_12_20_n_225
*364 iDUT/rem_12_20_n_226
*365 iDUT/rem_12_20_n_227
*366 iDUT/rem_12_20_n_228
*367 iDUT/rem_12_20_n_229
*368 iDUT/rem_12_20_n_230
*369 iDUT/rem_12_20_n_231
*370 iDUT/rem_12_20_n_232
*371 iDUT/rem_12_20_n_233
*372 iDUT/rem_12_20_n_234
*373 iDUT/rem_12_20_n_235
*374 iDUT/rem_12_20_n_236
*375 iDUT/rem_12_20_n_237
*376 iDUT/rem_12_20_n_238
*377 iDUT/rem_12_20_n_241
*378 iDUT/rem_12_20_n_243
*379 iDUT/rem_12_20_n_244
*380 iDUT/rem_12_20_n_245
*381 iDUT/rem_12_20_n_246
*382 iDUT/rem_12_20_n_247
*383 iDUT/rem_12_20_n_248
*384 iDUT/rem_12_20_n_249
*385 iDUT/rem_12_20_n_250
*386 iDUT/rem_12_20_n_251
*387 iDUT/rem_12_20_n_252
*388 iDUT/rem_12_20_n_253
*389 iDUT/rem_12_20_n_254
*390 iDUT/rem_12_20_n_255
*391 iDUT/rem_12_20_n_256
*392 iDUT/rem_12_20_n_257
*393 iDUT/rem_12_20_n_258
*394 iDUT/rem_12_20_n_259
*395 iDUT/rem_12_20_n_260
*396 iDUT/rem_12_20_n_261
*397 iDUT/rem_12_20_n_262
*398 iDUT/rem_12_20_n_263
*399 iDUT/rem_12_20_n_264
*400 iDUT/rem_12_20_n_265
*401 iDUT/rem_12_20_n_266
*402 iDUT/rem_12_20_n_267
*403 iDUT/rem_12_20_n_268
*404 iDUT/rem_12_20_n_269
*405 iDUT/rem_12_20_n_270
*406 iDUT/rem_12_20_n_271
*407 iDUT/rem_12_20_n_272
*408 iDUT/rem_12_20_n_273
*409 iDUT/rem_12_20_n_274
*410 iDUT/rem_12_20_n_275
*411 iDUT/rem_12_20_n_276
*412 iDUT/rem_12_20_n_277
*413 iDUT/rem_12_20_n_278
*414 iDUT/rem_12_20_n_279
*415 iDUT/rem_12_20_n_280
*416 iDUT/rem_12_20_n_281
*417 iDUT/rem_12_20_n_282
*418 iDUT/rem_12_20_n_283
*419 iDUT/rem_12_20_n_284
*420 iDUT/rem_12_20_n_285
*421 iDUT/rem_12_20_n_286
*422 iDUT/rem_12_20_n_287
*423 iDUT/rem_12_20_n_288
*424 iDUT/rem_12_20_n_289
*425 iDUT/rem_12_20_n_290
*426 iDUT/rem_12_20_n_291
*427 iDUT/rem_12_20_n_292
*428 iDUT/rem_12_20_n_293
*429 iDUT/rem_12_20_n_294
*430 iDUT/rem_12_20_n_295
*431 iDUT/rem_12_20_n_296
*432 iDUT/rem_12_20_n_297
*433 iDUT/rem_12_20_n_298
*434 iDUT/rem_12_20_n_299
*435 iDUT/rem_12_20_n_300
*436 iDUT/rem_12_20_n_301
*437 iDUT/rem_12_20_n_302
*438 iDUT/rem_12_20_n_303
*439 iDUT/rem_12_20_n_304
*440 iDUT/rem_12_20_n_305
*441 iDUT/rem_12_20_n_306
*442 iDUT/rem_12_20_n_307
*443 iDUT/rem_12_20_n_308
*444 iDUT/rem_12_20_n_309
*445 iDUT/rem_12_20_n_314
*446 iDUT/rem_12_20_n_315
*447 iDUT/rem_12_20_n_316
*448 iDUT/rem_12_20_n_317
*449 iDUT/rem_12_20_n_318
*450 iDUT/rem_12_20_n_319
*451 iDUT/rem_12_20_n_320
*452 iDUT/rem_12_20_n_321
*453 iDUT/rem_12_20_n_322
*454 iDUT/rem_12_20_n_323
*455 iDUT/rem_12_20_n_324
*456 iDUT/rem_12_20_n_325
*457 iDUT/rem_12_20_n_326
*458 iDUT/rem_12_20_n_327
*459 iDUT/rem_12_20_n_328
*460 iDUT/rem_12_20_n_329
*461 iDUT/rem_12_20_n_330
*462 iDUT/rem_12_20_n_332
*463 iDUT/rem_12_20_n_335
*464 iDUT/rem_12_20_n_338
*465 iDUT/rem_12_20_n_341
*466 iDUT/rem_12_20_n_343
*467 iDUT/rem_12_20_n_344
*468 iDUT/rem_12_20_n_345
*469 iDUT/rem_12_20_n_346
*470 iDUT/rem_12_20_n_347
*471 iDUT/rem_12_20_n_348
*472 iDUT/rem_12_20_n_349
*473 iDUT/rem_12_20_n_351
*474 iDUT/rem_12_20_n_352
*475 iDUT/rem_12_20_n_353
*476 iDUT/rem_12_20_n_354
*477 iDUT/rem_12_20_n_355
*478 iDUT/rem_12_20_n_356
*479 iDUT/rem_12_20_n_357
*480 iDUT/rem_12_20_n_358
*481 iDUT/rem_12_20_n_359
*482 iDUT/rem_12_20_n_360
*483 iDUT/rem_12_20_n_361
*484 iDUT/rem_12_20_n_362
*485 iDUT/rem_12_20_n_363
*486 iDUT/rem_12_20_n_364
*487 iDUT/rem_12_20_n_365
*488 iDUT/rem_12_20_n_366
*489 iDUT/rem_12_20_n_367
*490 iDUT/rem_12_20_n_368
*491 iDUT/rem_12_20_n_369
*492 iDUT/rem_12_20_n_370
*493 iDUT/rem_12_20_n_371
*494 iDUT/rem_12_20_n_372
*495 iDUT/rem_12_20_n_373
*496 iDUT/rem_12_20_n_374
*497 iDUT/rem_12_20_n_375
*498 iDUT/rem_12_20_n_376
*499 iDUT/rem_12_20_n_377
*500 iDUT/rem_12_20_n_378
*501 iDUT/rem_12_20_n_379
*502 iDUT/rem_12_20_n_380
*503 iDUT/rem_12_20_n_381
*504 iDUT/rem_12_20_n_382
*505 iDUT/rem_12_20_n_383
*506 iDUT/rem_12_20_n_384
*507 iDUT/rem_12_20_n_385
*508 iDUT/rem_12_20_n_386
*509 iDUT/rem_12_20_n_387
*510 iDUT/rem_12_20_n_388
*511 iDUT/rem_12_20_n_389
*512 iDUT/rem_12_20_n_390
*513 iDUT/rem_12_20_n_391
*514 iDUT/rem_12_20_n_392
*515 iDUT/rem_12_20_n_393
*516 iDUT/rem_12_20_n_394
*517 iDUT/rem_12_20_n_395
*518 iDUT/rem_12_20_n_396
*519 iDUT/rem_12_20_n_397
*520 iDUT/rem_12_20_n_398
*521 iDUT/rem_12_20_n_399
*522 iDUT/rem_12_20_n_400
*523 iDUT/rem_12_20_n_401
*524 iDUT/rem_12_20_n_402
*525 iDUT/rem_12_20_n_403
*526 iDUT/rem_12_20_n_404
*527 iDUT/rem_12_20_n_405
*528 iDUT/rem_12_20_n_406
*529 iDUT/rem_12_20_n_407
*530 iDUT/rem_12_20_n_408
*531 iDUT/rem_12_20_n_409
*532 iDUT/rem_12_20_n_410
*533 iDUT/rem_12_20_n_411
*534 iDUT/rem_12_20_n_412
*535 iDUT/rem_12_20_n_413
*536 iDUT/rem_12_20_n_414
*537 iDUT/rem_12_20_n_415
*538 iDUT/rem_12_20_n_416
*539 iDUT/rem_12_20_n_417
*540 iDUT/rem_12_20_n_418
*541 iDUT/rem_12_20_n_419
*542 iDUT/rem_12_20_n_420
*543 iDUT/rem_12_20_n_421
*544 iDUT/rem_12_20_n_422
*545 iDUT/rem_12_20_n_423
*546 iDUT/rem_12_20_n_424
*547 iDUT/rem_12_20_n_425
*548 iDUT/rem_12_20_n_426
*549 iDUT/rem_12_20_n_427
*550 iDUT/rem_12_20_n_428
*551 iDUT/rem_12_20_n_429
*552 iDUT/rem_12_20_n_430
*553 iDUT/rem_12_20_n_431
*554 iDUT/rem_12_20_n_432
*555 iDUT/rem_12_20_n_433
*556 iDUT/rem_12_20_n_434
*557 iDUT/rem_12_20_n_435
*558 iDUT/rem_12_20_n_436
*559 iDUT/rem_12_20_n_437
*560 iDUT/rem_12_20_n_438
*561 iDUT/rem_12_20_n_439
*562 iDUT/rem_12_20_n_440
*563 iDUT/rem_12_20_n_441
*564 iDUT/rem_12_20_n_442
*565 iDUT/rem_12_20_n_443
*566 iDUT/rem_12_20_n_444
*567 iDUT/rem_12_20_n_445
*568 iDUT/rem_12_20_n_446
*569 iDUT/rem_12_20_n_447
*570 iDUT/rem_12_20_n_448
*571 iDUT/rem_12_20_n_449
*572 iDUT/rem_12_20_n_450
*573 iDUT/rem_12_20_n_451
*574 iDUT/rem_12_20_n_452
*575 iDUT/rem_12_20_n_453
*576 iDUT/rem_12_20_n_454
*577 iDUT/rem_12_20_n_455
*578 iDUT/rem_12_20_n_456
*579 iDUT/rem_12_20_n_457
*580 iDUT/rem_12_20_n_458
*581 iDUT/rem_12_20_n_459
*582 iDUT/rem_12_20_n_460
*583 iDUT/rem_12_20_n_461
*584 iDUT/rem_12_20_n_462
*585 iDUT/rem_12_20_n_463
*586 iDUT/rem_12_20_n_464
*587 iDUT/rem_12_20_n_465
*588 iDUT/rem_12_20_n_466
*589 iDUT/rem_12_20_n_467
*590 iDUT/rem_12_20_n_468
*591 iDUT/rem_12_20_n_469
*592 iDUT/rem_12_20_n_470
*593 iDUT/rem_12_20_n_471
*594 iDUT/rem_12_20_n_472
*595 iDUT/rem_12_20_n_473
*596 iDUT/rem_12_20_n_474
*597 iDUT/rem_12_20_n_475
*598 iDUT/rem_12_20_n_476
*599 iDUT/rem_12_20_n_477
*600 iDUT/rem_12_20_n_478
*601 iDUT/rem_12_20_n_479
*602 iDUT/rem_12_20_n_480
*603 iDUT/rem_12_20_n_481
*604 iDUT/rem_12_20_n_482
*605 iDUT/rem_12_20_n_483
*606 iDUT/rem_12_20_n_484
*607 iDUT/rem_12_20_n_485
*608 iDUT/rem_12_20_n_486
*609 iDUT/rem_12_20_n_487
*610 iDUT/rem_12_20_n_488
*611 iDUT/rem_12_20_n_489
*612 iDUT/rem_12_20_n_490
*613 iDUT/rem_12_20_n_491
*614 iDUT/rem_12_20_n_492
*615 iDUT/rem_12_20_n_493
*616 iDUT/rem_12_20_n_494
*617 iDUT/rem_12_20_n_495
*618 iDUT/rem_12_20_n_496
*619 iDUT/rem_12_20_n_497
*620 iDUT/rem_12_20_n_498
*621 iDUT/rem_12_20_n_499
*622 iDUT/rem_12_20_n_500
*623 iDUT/rem_12_20_n_501
*624 iDUT/rem_12_20_n_502
*625 iDUT/rem_12_20_n_503
*626 iDUT/rem_12_20_n_504
*627 iDUT/rem_12_20_n_505
*628 iDUT/rem_12_20_n_506
*629 iDUT/rem_12_20_n_507
*630 iDUT/rem_12_20_n_508
*631 iDUT/rem_12_20_n_509
*632 iDUT/rem_12_20_n_510
*633 iDUT/rem_12_20_n_511
*634 iDUT/rem_12_20_n_512
*635 iDUT/rem_12_20_n_513
*636 iDUT/rem_12_20_n_516
*637 iDUT/rem_12_20_n_517
*638 iDUT/rem_12_20_n_518
*639 iDUT/rem_12_20_n_519
*640 iDUT/rem_12_20_n_520
*641 iDUT/rem_12_20_n_521
*642 iDUT/rem_12_20_n_522
*643 iDUT/rem_12_20_n_523
*644 iDUT/rem_12_20_n_524
*645 iDUT/rem_12_20_n_525
*646 iDUT/rem_12_20_n_526
*647 iDUT/rem_12_20_n_527
*648 iDUT/rem_12_20_n_528
*649 iDUT/rem_12_20_n_529
*650 iDUT/rem_12_20_n_530
*651 iDUT/rem_12_20_n_531
*652 iDUT/rem_12_20_n_532
*653 iDUT/rem_12_20_n_533
*654 iDUT/rem_12_20_n_534
*655 iDUT/rem_12_20_n_535
*656 iDUT/rem_12_20_n_536
*657 iDUT/rem_12_20_n_537
*658 iDUT/rem_12_20_n_538
*659 iDUT/rem_12_20_n_539
*660 iDUT/rem_12_20_n_540
*661 iDUT/rem_12_20_n_541
*662 iDUT/rem_12_20_n_542
*663 iDUT/rem_12_20_n_543
*664 iDUT/rem_12_20_n_544
*665 iDUT/rem_12_20_n_545
*666 iDUT/rem_12_20_n_546
*667 iDUT/rem_12_20_n_547
*668 iDUT/rem_12_20_n_548
*669 iDUT/rem_12_20_n_549
*670 iDUT/rem_12_20_n_550
*671 iDUT/rem_12_20_n_551
*672 iDUT/rem_12_20_n_552
*673 iDUT/rem_12_20_n_553
*674 iDUT/rem_12_20_n_554
*675 iDUT/rem_12_20_n_555
*676 iDUT/rem_12_20_n_556
*677 iDUT/rem_12_20_n_557
*678 iDUT/rem_12_20_n_558
*679 iDUT/rem_12_20_n_559
*680 iDUT/rem_12_20_n_560
*681 iDUT/rem_12_20_n_561
*682 iDUT/rem_12_20_n_562
*683 iDUT/rem_12_20_n_563
*684 iDUT/rem_12_20_n_564
*685 iDUT/rem_12_20_n_565
*686 iDUT/rem_12_20_n_566
*687 iDUT/rem_12_20_n_567
*688 iDUT/rem_12_20_n_568
*689 iDUT/rem_12_20_n_569
*690 iDUT/rem_12_20_n_570
*691 iDUT/rem_12_20_n_571
*692 iDUT/rem_12_20_n_572
*693 iDUT/rem_12_20_n_573
*694 iDUT/rem_12_20_n_574
*695 iDUT/rem_12_20_n_575
*696 iDUT/rem_12_20_n_576
*697 iDUT/rem_12_20_n_577
*698 iDUT/rem_12_20_n_578
*699 iDUT/rem_12_20_n_579
*700 iDUT/rem_12_20_n_580
*701 iDUT/rem_12_20_n_581
*702 iDUT/rem_12_20_n_582
*703 iDUT/rem_12_20_n_583
*704 iDUT/rem_12_20_n_584
*705 iDUT/rem_12_20_n_585
*706 iDUT/rem_12_20_n_586
*707 iDUT/rem_12_20_n_587
*708 iDUT/rem_12_20_n_588
*709 iDUT/rem_12_20_n_589
*710 iDUT/rem_12_20_n_590
*711 iDUT/rem_12_20_n_591
*712 iDUT/rem_12_20_n_592
*713 iDUT/n_641
*714 iDUT/n_642
*715 iDUT/n_643
*716 iDUT/n_644
*717 iDUT/n_645
*718 iDUT/n_646
*719 iDUT/n_647
*720 iDUT/n_648
*721 iDUT/n_650
*722 iDUT/n_651
*723 iDUT/n_652
*724 iDUT/n_653
*725 iDUT/rem_12_20_g6090__8780
*726 iDUT/rem_12_20_g6091__4296
*727 iDUT/rem_12_20_g6092__3772
*728 iDUT/rem_12_20_g6093__1474
*729 iDUT/rem_12_20_g6094__4547
*730 iDUT/rem_12_20_g6095__9682
*731 iDUT/rem_12_20_g6096__2683
*732 iDUT/rem_12_20_g6097__1309
*733 iDUT/rem_12_20_g6098__6877
*734 iDUT/rem_12_20_g6099__2900
*735 iDUT/rem_12_20_g6100__2391
*736 iDUT/rem_12_20_g6101__7675
*737 iDUT/rem_12_20_g6102__7118
*738 iDUT/rem_12_20_g6103__8757
*739 iDUT/rem_12_20_g6104__1786
*740 iDUT/rem_12_20_g6105__5953
*741 iDUT/rem_12_20_g6106__5703
*742 iDUT/rem_12_20_g6107
*743 iDUT/rem_12_20_g6108__7114
*744 iDUT/rem_12_20_g6109__5266
*745 iDUT/rem_12_20_g6110__2250
*746 iDUT/rem_12_20_g6111__6083
*747 iDUT/rem_12_20_g6112__2703
*748 iDUT/rem_12_20_g6113__5795
*749 iDUT/rem_12_20_g6114__7344
*750 iDUT/rem_12_20_g6115__1840
*751 iDUT/rem_12_20_g6116__5019
*752 iDUT/rem_12_20_g6117__1857
*753 iDUT/rem_12_20_g6118__9906
*754 iDUT/rem_12_20_g6119__8780
*755 iDUT/rem_12_20_g6120__4296
*756 iDUT/rem_12_20_g6121__3772
*757 iDUT/rem_12_20_g6122__1474
*758 iDUT/rem_12_20_g6123__4547
*759 iDUT/rem_12_20_g6124__9682
*760 iDUT/rem_12_20_g6127__2683
*761 iDUT/rem_12_20_g6128__1309
*762 iDUT/rem_12_20_g6129__6877
*763 iDUT/rem_12_20_g6130__2900
*764 iDUT/rem_12_20_g6131__2391
*765 iDUT/rem_12_20_g6132__7675
*766 iDUT/rem_12_20_g6133__7118
*767 iDUT/rem_12_20_g6134__8757
*768 iDUT/rem_12_20_g6135__1786
*769 iDUT/rem_12_20_g6136__5953
*770 iDUT/rem_12_20_g6137__5703
*771 iDUT/rem_12_20_g6138__7114
*772 iDUT/rem_12_20_g6139__5266
*773 iDUT/rem_12_20_g6140__2250
*774 iDUT/rem_12_20_g6141__6083
*775 iDUT/rem_12_20_g6142__2703
*776 iDUT/rem_12_20_g6143
*777 iDUT/rem_12_20_g6144__5795
*778 iDUT/rem_12_20_g6145__7344
*779 iDUT/rem_12_20_g6146__1840
*780 iDUT/rem_12_20_g6147__5019
*781 iDUT/rem_12_20_g6148__1857
*782 iDUT/rem_12_20_g6149__9906
*783 iDUT/rem_12_20_g6150__8780
*784 iDUT/rem_12_20_g6151__4296
*785 iDUT/rem_12_20_g6152__3772
*786 iDUT/rem_12_20_g6153__1474
*787 iDUT/rem_12_20_g6154__4547
*788 iDUT/rem_12_20_g6155__9682
*789 iDUT/rem_12_20_g6156__2683
*790 iDUT/rem_12_20_g6157__1309
*791 iDUT/rem_12_20_g6160__2391
*792 iDUT/rem_12_20_g6161__7675
*793 iDUT/rem_12_20_g6162__7118
*794 iDUT/rem_12_20_g6163__8757
*795 iDUT/rem_12_20_g6164__1786
*796 iDUT/rem_12_20_g6165__5953
*797 iDUT/rem_12_20_g6166__5703
*798 iDUT/rem_12_20_g6167__7114
*799 iDUT/rem_12_20_g6168__5266
*800 iDUT/rem_12_20_g6169__2250
*801 iDUT/rem_12_20_g6170__6083
*802 iDUT/rem_12_20_g6171__2703
*803 iDUT/rem_12_20_g6172__5795
*804 iDUT/rem_12_20_g6173__7344
*805 iDUT/rem_12_20_g6174__1840
*806 iDUT/rem_12_20_g6175
*807 iDUT/rem_12_20_g6176__5019
*808 iDUT/rem_12_20_g6177__1857
*809 iDUT/rem_12_20_g6178
*810 iDUT/rem_12_20_g6179__9906
*811 iDUT/rem_12_20_g6180__8780
*812 iDUT/rem_12_20_g6181__4296
*813 iDUT/rem_12_20_g6182__3772
*814 iDUT/rem_12_20_g6183__1474
*815 iDUT/rem_12_20_g6184__4547
*816 iDUT/rem_12_20_g6185__9682
*817 iDUT/rem_12_20_g6186__2683
*818 iDUT/rem_12_20_g6187__1309
*819 iDUT/rem_12_20_g6188__6877
*820 iDUT/rem_12_20_g6189__2900
*821 iDUT/rem_12_20_g6190__2391
*822 iDUT/rem_12_20_g6191__7675
*823 iDUT/rem_12_20_g6192__7118
*824 iDUT/rem_12_20_g6193__8757
*825 iDUT/rem_12_20_g6194__1786
*826 iDUT/rem_12_20_g6195__5953
*827 iDUT/rem_12_20_g6196__5703
*828 iDUT/rem_12_20_g6197__7114
*829 iDUT/rem_12_20_g6198__5266
*830 iDUT/rem_12_20_g6199__2250
*831 iDUT/rem_12_20_g6200__6083
*832 iDUT/rem_12_20_g6201__2703
*833 iDUT/rem_12_20_g6202__5795
*834 iDUT/rem_12_20_g6203__7344
*835 iDUT/rem_12_20_g6204__1840
*836 iDUT/rem_12_20_g6205
*837 iDUT/rem_12_20_g6206__5019
*838 iDUT/rem_12_20_g6207__1857
*839 iDUT/rem_12_20_g6208__9906
*840 iDUT/rem_12_20_g6209__8780
*841 iDUT/rem_12_20_g6210__4296
*842 iDUT/rem_12_20_g6211__3772
*843 iDUT/rem_12_20_g6212__1474
*844 iDUT/rem_12_20_g6213__4547
*845 iDUT/rem_12_20_g6214__9682
*846 iDUT/rem_12_20_g6215__2683
*847 iDUT/rem_12_20_g6216__1309
*848 iDUT/rem_12_20_g6217__6877
*849 iDUT/rem_12_20_g6220__2900
*850 iDUT/rem_12_20_g6221__2391
*851 iDUT/rem_12_20_g6222__7675
*852 iDUT/rem_12_20_g6223__7118
*853 iDUT/rem_12_20_g6224__8757
*854 iDUT/rem_12_20_g6225__1786
*855 iDUT/rem_12_20_g6226__5953
*856 iDUT/rem_12_20_g6227__5703
*857 iDUT/rem_12_20_g6228__7114
*858 iDUT/rem_12_20_g6229__5266
*859 iDUT/rem_12_20_g6230__2250
*860 iDUT/rem_12_20_g6231__6083
*861 iDUT/rem_12_20_g6232__2703
*862 iDUT/rem_12_20_g6233
*863 iDUT/rem_12_20_g6234__5795
*864 iDUT/rem_12_20_g6235__7344
*865 iDUT/rem_12_20_g6236__1840
*866 iDUT/rem_12_20_g6237__5019
*867 iDUT/rem_12_20_g6238__1857
*868 iDUT/rem_12_20_g6239__9906
*869 iDUT/rem_12_20_g6240__8780
*870 iDUT/rem_12_20_g6241__4296
*871 iDUT/rem_12_20_g6242__3772
*872 iDUT/rem_12_20_g6243__1474
*873 iDUT/rem_12_20_g6244__4547
*874 iDUT/rem_12_20_g6245__9682
*875 iDUT/rem_12_20_g6246__2683
*876 iDUT/rem_12_20_g6247__1309
*877 iDUT/rem_12_20_g6248
*878 iDUT/rem_12_20_g6249__6877
*879 iDUT/rem_12_20_g6250__2900
*880 iDUT/rem_12_20_g6251__2391
*881 iDUT/rem_12_20_g6252__7675
*882 iDUT/rem_12_20_g6253__7118
*883 iDUT/rem_12_20_g6254__8757
*884 iDUT/rem_12_20_g6255__1786
*885 iDUT/rem_12_20_g6256__5953
*886 iDUT/rem_12_20_g6257__5703
*887 iDUT/rem_12_20_g6258__7114
*888 iDUT/rem_12_20_g6259__5266
*889 iDUT/rem_12_20_g6260
*890 iDUT/rem_12_20_g6261__2250
*891 iDUT/rem_12_20_g6262__6083
*892 iDUT/rem_12_20_g6263__2703
*893 iDUT/rem_12_20_g6264__5795
*894 iDUT/rem_12_20_g6265__7344
*895 iDUT/rem_12_20_g6266__1840
*896 iDUT/rem_12_20_g6267__5019
*897 iDUT/rem_12_20_g6268__1857
*898 iDUT/rem_12_20_g6269__9906
*899 iDUT/rem_12_20_g6270__8780
*900 iDUT/rem_12_20_g6273__4296
*901 iDUT/rem_12_20_g6274__3772
*902 iDUT/rem_12_20_g6275__1474
*903 iDUT/rem_12_20_g6276__4547
*904 iDUT/rem_12_20_g6277__9682
*905 iDUT/rem_12_20_g6278__2683
*906 iDUT/rem_12_20_g6279__1309
*907 iDUT/rem_12_20_g6280__6877
*908 iDUT/rem_12_20_g6281__2900
*909 iDUT/rem_12_20_g6282__2391
*910 iDUT/rem_12_20_g6283__7675
*911 iDUT/rem_12_20_g6285
*912 iDUT/rem_12_20_g6286__8757
*913 iDUT/rem_12_20_g6287__1786
*914 iDUT/rem_12_20_g6288__5953
*915 iDUT/rem_12_20_g6289__5703
*916 iDUT/rem_12_20_g6290__7114
*917 iDUT/rem_12_20_g6291__5266
*918 iDUT/rem_12_20_g6293__6083
*919 iDUT/rem_12_20_g6296__7344
*920 iDUT/rem_12_20_g6299__1857
*921 iDUT/rem_12_20_g6302__4296
*922 iDUT/rem_12_20_g6304__1474
*923 iDUT/rem_12_20_g6305__4547
*924 iDUT/rem_12_20_g6306__9682
*925 iDUT/rem_12_20_g6307__2683
*926 iDUT/rem_12_20_g6308__1309
*927 iDUT/rem_12_20_g6309__6877
*928 iDUT/rem_12_20_g6310__2900
*929 iDUT/rem_12_20_g6311__2391
*930 iDUT/rem_12_20_g6312__7675
*931 iDUT/rem_12_20_g6313__7118
*932 iDUT/rem_12_20_g6314__8757
*933 iDUT/rem_12_20_g6315__1786
*934 iDUT/rem_12_20_g6316__5953
*935 iDUT/rem_12_20_g6317__5703
*936 iDUT/rem_12_20_g6318__7114
*937 iDUT/rem_12_20_g6319__5266
*938 iDUT/rem_12_20_g6320__2250
*939 iDUT/rem_12_20_g6325__1840
*940 iDUT/rem_12_20_g6326__5019
*941 iDUT/rem_12_20_g6327__1857
*942 iDUT/rem_12_20_g6328
*943 iDUT/rem_12_20_g6329__9906
*944 iDUT/rem_12_20_g6330__8780
*945 iDUT/rem_12_20_g6331__4296
*946 iDUT/rem_12_20_g6332__3772
*947 iDUT/rem_12_20_g6333__1474
*948 iDUT/rem_12_20_g6334
*949 iDUT/rem_12_20_g6335__4547
*950 iDUT/rem_12_20_g6336__9682
*951 iDUT/rem_12_20_g6337__2683
*952 iDUT/rem_12_20_g6338__1309
*953 iDUT/rem_12_20_g6339
*954 iDUT/rem_12_20_g6340__6877
*955 iDUT/rem_12_20_g6341__2900
*956 iDUT/rem_12_20_g6342__2391
*957 iDUT/rem_12_20_g6343__7675
*958 iDUT/rem_12_20_g6344__7118
*959 iDUT/rem_12_20_g6345__8757
*960 iDUT/rem_12_20_g6346__1786
*961 iDUT/rem_12_20_g6347__5953
*962 iDUT/rem_12_20_g6348__5703
*963 iDUT/rem_12_20_g6349__7114
*964 iDUT/rem_12_20_g6350__5266
*965 iDUT/rem_12_20_g6351__2250
*966 iDUT/rem_12_20_g6352__6083
*967 iDUT/rem_12_20_g6353__2703
*968 iDUT/rem_12_20_g6354__5795
*969 iDUT/rem_12_20_g6355__7344
*970 iDUT/rem_12_20_g6356__1840
*971 iDUT/rem_12_20_g6357__5019
*972 iDUT/rem_12_20_g6358__1857
*973 iDUT/rem_12_20_g6359__9906
*974 iDUT/rem_12_20_g6360__8780
*975 iDUT/rem_12_20_g6361__4296
*976 iDUT/rem_12_20_g6362__3772
*977 iDUT/rem_12_20_g6363__1474
*978 iDUT/rem_12_20_g6364__4547
*979 iDUT/rem_12_20_g6365__9682
*980 iDUT/rem_12_20_g6366__2683
*981 iDUT/rem_12_20_g6367__1309
*982 iDUT/rem_12_20_g6368__6877
*983 iDUT/rem_12_20_g6369__2900
*984 iDUT/rem_12_20_g6370__2391
*985 iDUT/rem_12_20_g6371__7675
*986 iDUT/rem_12_20_g6372__7118
*987 iDUT/rem_12_20_g6375
*988 iDUT/rem_12_20_g6376__8757
*989 iDUT/rem_12_20_g6377__1786
*990 iDUT/rem_12_20_g6378__5953
*991 iDUT/rem_12_20_g6379__5703
*992 iDUT/rem_12_20_g6380__7114
*993 iDUT/rem_12_20_g6381__5266
*994 iDUT/rem_12_20_g6382__2250
*995 iDUT/rem_12_20_g6383__6083
*996 iDUT/rem_12_20_g6384
*997 iDUT/rem_12_20_g6385__2703
*998 iDUT/rem_12_20_g6386
*999 iDUT/rem_12_20_g6387__5795
*1000 iDUT/rem_12_20_g6388__7344
*1001 iDUT/rem_12_20_g6389
*1002 iDUT/rem_12_20_g6390__1840
*1003 iDUT/rem_12_20_g6391
*1004 iDUT/rem_12_20_g6392__5019
*1005 iDUT/rem_12_20_g6393__1857
*1006 iDUT/rem_12_20_g6394
*1007 iDUT/rem_12_20_g6398__3772
*1008 iDUT/rem_12_20_g6399__1474
*1009 iDUT/rem_12_20_g6400__4547
*1010 iDUT/rem_12_20_g6401__9682
*1011 iDUT/rem_12_20_g6402__2683
*1012 iDUT/rem_12_20_g6403__1309
*1013 iDUT/rem_12_20_g6404__6877
*1014 iDUT/rem_12_20_g6405__2900
*1015 iDUT/rem_12_20_g6406__2391
*1016 iDUT/rem_12_20_g6407__7675
*1017 iDUT/rem_12_20_g6408__7118
*1018 iDUT/rem_12_20_g6409__8757
*1019 iDUT/rem_12_20_g6410__1786
*1020 iDUT/rem_12_20_g6411__5953
*1021 iDUT/rem_12_20_g6412__5703
*1022 iDUT/rem_12_20_g6413__7114
*1023 iDUT/rem_12_20_g6414__5266
*1024 iDUT/rem_12_20_g6415__2250
*1025 iDUT/rem_12_20_g6416__6083
*1026 iDUT/rem_12_20_g6417__2703
*1027 iDUT/rem_12_20_g6418__5795
*1028 iDUT/rem_12_20_g6419__7344
*1029 iDUT/rem_12_20_g6420__1840
*1030 iDUT/rem_12_20_g6421__5019
*1031 iDUT/rem_12_20_g6422__1857
*1032 iDUT/rem_12_20_g6423__9906
*1033 iDUT/rem_12_20_g6424__8780
*1034 iDUT/rem_12_20_g6425__4296
*1035 iDUT/rem_12_20_g6426__3772
*1036 iDUT/rem_12_20_g6427__1474
*1037 iDUT/rem_12_20_g6428__4547
*1038 iDUT/rem_12_20_g6429__9682
*1039 iDUT/rem_12_20_g6430__2683
*1040 iDUT/rem_12_20_g6431__1309
*1041 iDUT/rem_12_20_g6432__6877
*1042 iDUT/rem_12_20_g6434
*1043 iDUT/rem_12_20_g6435__2391
*1044 iDUT/rem_12_20_g6436__7675
*1045 iDUT/rem_12_20_g6437
*1046 iDUT/rem_12_20_g6438__7118
*1047 iDUT/rem_12_20_g6439__8757
*1048 iDUT/rem_12_20_g6440
*1049 iDUT/rem_12_20_g6441__1786
*1050 iDUT/rem_12_20_g6442__5953
*1051 iDUT/rem_12_20_g6443__5703
*1052 iDUT/rem_12_20_g6444__7114
*1053 iDUT/rem_12_20_g6445__5266
*1054 iDUT/rem_12_20_g6446__2250
*1055 iDUT/rem_12_20_g6447__6083
*1056 iDUT/rem_12_20_g6448__2703
*1057 iDUT/rem_12_20_g6449__5795
*1058 iDUT/rem_12_20_g6450__7344
*1059 iDUT/rem_12_20_g6451__1840
*1060 iDUT/rem_12_20_g6452__5019
*1061 iDUT/rem_12_20_g6453__1857
*1062 iDUT/rem_12_20_g6454__9906
*1063 iDUT/rem_12_20_g6455__8780
*1064 iDUT/rem_12_20_g6456__4296
*1065 iDUT/rem_12_20_g6457__3772
*1066 iDUT/rem_12_20_g6458__1474
*1067 iDUT/rem_12_20_g6459__4547
*1068 iDUT/rem_12_20_g6460__9682
*1069 iDUT/rem_12_20_g6461__2683
*1070 iDUT/rem_12_20_g6462__1309
*1071 iDUT/rem_12_20_g6463__6877
*1072 iDUT/rem_12_20_g6464__2900
*1073 iDUT/rem_12_20_g6465__2391
*1074 iDUT/rem_12_20_g6468__7675
*1075 iDUT/rem_12_20_g6469__7118
*1076 iDUT/rem_12_20_g6470__8757
*1077 iDUT/rem_12_20_g6471__1786
*1078 iDUT/rem_12_20_g6473__5953
*1079 iDUT/rem_12_20_g6474__5703
*1080 iDUT/rem_12_20_g6475
*1081 iDUT/rem_12_20_g6476__7114
*1082 iDUT/rem_12_20_g6477__5266
*1083 iDUT/rem_12_20_g6478__2250
*1084 iDUT/rem_12_20_g6479__6083
*1085 iDUT/rem_12_20_g6480
*1086 iDUT/rem_12_20_g6481__2703
*1087 iDUT/rem_12_20_g6482__5795
*1088 iDUT/rem_12_20_g6483__7344
*1089 iDUT/rem_12_20_g6484__1840
*1090 iDUT/rem_12_20_g6485__5019
*1091 iDUT/rem_12_20_g6486__1857
*1092 iDUT/rem_12_20_g6487__9906
*1093 iDUT/rem_12_20_g6488__8780
*1094 iDUT/rem_12_20_g6489__4296
*1095 iDUT/rem_12_20_g6490__3772
*1096 iDUT/rem_12_20_g6492__1474
*1097 iDUT/rem_12_20_g6493__4547
*1098 iDUT/rem_12_20_g6494__9682
*1099 iDUT/rem_12_20_g6496__2683
*1100 iDUT/rem_12_20_g6497__1309
*1101 iDUT/rem_12_20_g6498__6877
*1102 iDUT/rem_12_20_g6499__2900
*1103 iDUT/rem_12_20_g6500__2391
*1104 iDUT/rem_12_20_g6501__7675
*1105 iDUT/rem_12_20_g6502__7118
*1106 iDUT/rem_12_20_g6503__8757
*1107 iDUT/rem_12_20_g6504
*1108 iDUT/rem_12_20_g6505__1786
*1109 iDUT/rem_12_20_g6506
*1110 iDUT/rem_12_20_g6507__5953
*1111 iDUT/rem_12_20_g6508
*1112 iDUT/rem_12_20_g6509__5703
*1113 iDUT/rem_12_20_g6510
*1114 iDUT/rem_12_20_g6511__7114
*1115 iDUT/rem_12_20_g6512__5266
*1116 iDUT/rem_12_20_g6513
*1117 iDUT/rem_12_20_g6514__2250
*1118 iDUT/rem_12_20_g6515__6083
*1119 iDUT/rem_12_20_g6516__2703
*1120 iDUT/rem_12_20_g6517__5795
*1121 iDUT/rem_12_20_g6518__7344
*1122 iDUT/rem_12_20_g6519__1840
*1123 iDUT/rem_12_20_g6520__5019